@<TRIPOS>MOLECULE
****
35 35 1 0 0
SMALL
USER_CHARGES


@<TRIPOS>ATOM
      1 C           7.9132    4.4352    0.4679 C.3       1     ****    0.0000
      2 C           8.0917    3.0341   -0.1318 C.3       1     ****    0.0000
      3 N           7.9975    3.1161   -1.5998 N.3       1     ****    0.0000
      4 C           7.0799    2.0197    0.3814 C.2       1     ****    0.0000
      5 O           6.2077    2.2659    1.1821 O.2       1     ****    0.0000
      6 O           7.3204    0.8162   -0.2114 O.3       1     ****    0.0000
      7 C           6.5786   -0.3307    0.0833 C.3       1     ****    0.0000
      8 C           7.2712   -1.4598   -0.7006 C.3       1     ****    0.0000
      9 C           6.6688   -0.6719    1.5776 C.3       1     ****    0.0000
     10 C           5.1262   -0.1651   -0.4045 C.3       1     ****    0.0000
     11 C           4.2724   -1.4108   -0.2693 C.ar      1     ****    0.0000
     12 C           4.1429   -2.2772   -1.2907 C.ar      1     ****    0.0000
     13 C           3.3844   -3.3785   -1.1760 C.ar      1     ****    0.0000
     14 C           2.7333   -3.6255   -0.0289 C.ar      1     ****    0.0000
     15 Cl          1.7557   -5.0402    0.1257 Cl        1     ****    0.0000
     16 C           2.8417   -2.7658    0.9959 C.ar      1     ****    0.0000
     17 C           3.6033   -1.6680    0.8694 C.ar      1     ****    0.0000
     18 H           8.0142    4.4160    1.5773 H         1     ****    0.0000
     19 H           8.6834    5.1377    0.0743 H         1     ****    0.0000
     20 H           6.9131    4.8569    0.2169 H         1     ****    0.0000
     21 H           9.1068    2.6507    0.1354 H         1     ****    0.0000
     22 H           7.9913    2.1692   -2.0187 H         1     ****    0.0000
     23 H           7.1014    3.5467   -1.8876 H         1     ****    0.0000
     24 H           6.8076   -2.4529   -0.5086 H         1     ****    0.0000
     25 H           8.3453   -1.5464   -0.4179 H         1     ****    0.0000
     26 H           7.2330   -1.2734   -1.7981 H         1     ****    0.0000
     27 H           7.7216   -0.6237    1.9381 H         1     ****    0.0000
     28 H           6.0613   -0.0019    2.2223 H         1     ****    0.0000
     29 H           6.3064   -1.7050    1.7780 H         1     ****    0.0000
     30 H           4.6102    0.6587    0.1369 H         1     ****    0.0000
     31 H           5.1344    0.1580   -1.4721 H         1     ****    0.0000
     32 H           4.6690   -2.0885   -2.2412 H         1     ****    0.0000
     33 H           3.3041   -4.0708   -2.0310 H         1     ****    0.0000
     34 H           2.3101   -2.9485    1.9449 H         1     ****    0.0000
     35 H           3.6779   -0.9697    1.7194 H         1     ****    0.0000
@<TRIPOS>BOND
     1     1     2     1
     2     1    18     1
     3     1    19     1
     4     1    20     1
     5     2     3     1
     6     2     4     1
     7     2    21     1
     8     3    22     1
     9     3    23     1
    10     4     5     2
    11     4     6     1
    12     6     7     1
    13     7     8     1
    14     7     9     1
    15     7    10     1
    16     8    24     1
    17     8    25     1
    18     8    26     1
    19     9    27     1
    20     9    28     1
    21     9    29     1
    22    10    11     1
    23    10    30     1
    24    10    31     1
    25    11    12     1
    26    11    17     2
    27    12    13     2
    28    12    32     1
    29    13    14     1
    30    13    33     1
    31    14    15     1
    32    14    16     2
    33    16    17     1
    34    16    34     1
    35    17    35     1
