@<TRIPOS>MOLECULE
****
44 46 1 0 0
SMALL
USER_CHARGES


@<TRIPOS>ATOM
      1 C           5.1460   -0.9519    0.9152 C.3       1     ****    0.0000
      2 N           4.1102   -0.8462   -0.1047 N.3       1     ****    0.0000
      3 C           4.3067    0.3635   -0.8906 C.3       1     ****    0.0000
      4 C           2.7856   -0.9134    0.5103 C.3       1     ****    0.0000
      5 C           1.6154   -0.9136   -0.4981 C.3       1     ****    0.0000
      6 C           0.2751   -1.1593    0.1853 C.2       1     ****    0.0000
      7 C          -0.8944   -0.4753    0.0495 C.2       1     ****    0.0000
      8 C          -1.9233   -0.6769    0.9314 C.ar      1     ****    0.0000
      9 C          -1.9486   -1.8221    1.6617 C.ar      1     ****    0.0000
     10 C          -2.9171   -2.1801    2.5178 C.ar      1     ****    0.0000
     11 C          -3.9711   -1.3807    2.6865 C.ar      1     ****    0.0000
     12 C          -3.9966   -0.2458    1.9823 C.ar      1     ****    0.0000
     13 C          -3.0140    0.1142    1.1288 C.ar      1     ****    0.0000
     14 C          -3.2379    1.4828    0.5204 C.3       1     ****    0.0000
     15 C          -1.9327    2.2320    0.2898 C.3       1     ****    0.0000
     16 C          -1.3954    1.6465   -0.9822 C.ar      1     ****    0.0000
     17 C          -1.3806    2.4155   -2.0876 C.ar      1     ****    0.0000
     18 C          -0.9079    1.9571   -3.2532 C.ar      1     ****    0.0000
     19 C          -0.4577    0.6989   -3.3074 C.ar      1     ****    0.0000
     20 C          -0.4755   -0.0571   -2.1998 C.ar      1     ****    0.0000
     21 C          -0.9154    0.3874   -0.9998 C.ar      1     ****    0.0000
     22 H           5.0475   -1.9008    1.4907 H         1     ****    0.0000
     23 H           6.1600   -0.9728    0.4538 H         1     ****    0.0000
     24 H           5.1081   -0.1014    1.6340 H         1     ****    0.0000
     25 H           3.6474    0.3816   -1.7864 H         1     ****    0.0000
     26 H           5.3448    0.4148   -1.2915 H         1     ****    0.0000
     27 H           4.1224    1.2827   -0.2888 H         1     ****    0.0000
     28 H           2.7260   -1.8594    1.1023 H         1     ****    0.0000
     29 H           2.6429   -0.0713    1.2296 H         1     ****    0.0000
     30 H           1.6248    0.0710   -1.0149 H         1     ****    0.0000
     31 H           1.7982   -1.7276   -1.2399 H         1     ****    0.0000
     32 H           0.4395   -1.8969    0.9822 H         1     ****    0.0000
     33 H          -1.1987   -2.6218    1.5790 H         1     ****    0.0000
     34 H          -2.8714   -3.1396    3.0616 H         1     ****    0.0000
     35 H          -4.7891   -1.6517    3.3737 H         1     ****    0.0000
     36 H          -4.8740    0.4058    2.1371 H         1     ****    0.0000
     37 H          -3.8311    2.1225    1.2189 H         1     ****    0.0000
     38 H          -3.8452    1.3918   -0.4104 H         1     ****    0.0000
     39 H          -1.2194    2.1177    1.1376 H         1     ****    0.0000
     40 H          -2.1255    3.3253    0.1851 H         1     ****    0.0000
     41 H          -1.7660    3.4482   -2.0551 H         1     ****    0.0000
     42 H          -0.9096    2.5930   -4.1537 H         1     ****    0.0000
     43 H          -0.0973    0.2838   -4.2638 H         1     ****    0.0000
     44 H          -0.1516   -1.1034   -2.3374 H         1     ****    0.0000
@<TRIPOS>BOND
     1     1     2     1
     2     1    22     1
     3     1    23     1
     4     1    24     1
     5     2     3     1
     6     2     4     1
     7     3    25     1
     8     3    26     1
     9     3    27     1
    10     4     5     1
    11     4    28     1
    12     4    29     1
    13     5     6     1
    14     5    30     1
    15     5    31     1
    16     6     7     2
    17     6    32     1
    18     7     8     1
    19     7    21     1
    20     8     9     2
    21     8    13     1
    22     9    10     1
    23     9    33     1
    24    10    11     2
    25    10    34     1
    26    11    12     1
    27    11    35     1
    28    12    13     2
    29    12    36     1
    30    13    14     1
    31    14    15     1
    32    14    37     1
    33    14    38     1
    34    15    16     1
    35    15    39     1
    36    15    40     1
    37    16    17     2
    38    16    21     1
    39    17    18     1
    40    17    41     1
    41    18    19     2
    42    18    42     1
    43    19    20     1
    44    19    43     1
    45    20    21     2
    46    20    44     1
