@<TRIPOS>MOLECULE
****
38 41 1 0 0
SMALL
USER_CHARGES


@<TRIPOS>ATOM
      1 Cl         -3.3679   -2.8757    2.7035 Cl        1     ****    0.0000
      2 C          -2.1559   -2.6181    1.4984 C.ar      1     ****    0.0000
      3 C          -1.6725   -1.3904    1.2551 C.ar      1     ****    0.0000
      4 C          -0.7354   -1.0969    0.3211 C.ar      1     ****    0.0000
      5 C          -0.3385   -2.1516   -0.4314 C.ar      1     ****    0.0000
      6 O           0.6386   -2.0728   -1.3712 O.3       1     ****    0.0000
      7 C           0.4867   -1.1781   -2.3754 C.ar      1     ****    0.0000
      8 C           0.6930   -1.5731   -3.6469 C.ar      1     ****    0.0000
      9 C           0.6727   -0.7117   -4.6729 C.ar      1     ****    0.0000
     10 C           0.4897    0.5903   -4.4214 C.ar      1     ****    0.0000
     11 C           0.2991    0.9937   -3.1569 C.ar      1     ****    0.0000
     12 C           0.2649    0.1233   -2.1252 C.ar      1     ****    0.0000
     13 N           0.0303    0.6470   -0.9971 N.2       1     ****    0.0000
     14 C          -0.3669    0.2036    0.1307 C.2       1     ****    0.0000
     15 N          -0.4657    1.1130    1.0402 N.pl3     1     ****    0.0000
     16 C          -0.3389    2.5700    0.7174 C.3       1     ****    0.0000
     17 C           0.8959    3.1623    1.4015 C.3       1     ****    0.0000
     18 N           0.8228    2.9338    2.8421 N.3       1     ****    0.0000
     19 C           0.7257    1.5157    3.1763 C.3       1     ****    0.0000
     20 C          -0.4764    0.8161    2.5076 C.3       1     ****    0.0000
     21 C          -0.8115   -3.3895   -0.1787 C.ar      1     ****    0.0000
     22 C          -1.7169   -3.6480    0.7702 C.ar      1     ****    0.0000
     23 H          -2.1910   -0.5955    1.8123 H         1     ****    0.0000
     24 H           0.9121   -2.6349   -3.8532 H         1     ****    0.0000
     25 H           0.8455   -1.0623   -5.7039 H         1     ****    0.0000
     26 H           0.4960    1.3210   -5.2474 H         1     ****    0.0000
     27 H           0.1404    2.0742   -2.9870 H         1     ****    0.0000
     28 H          -0.3611    2.8580   -0.3552 H         1     ****    0.0000
     29 H          -1.2449    3.0718    1.1358 H         1     ****    0.0000
     30 H           1.8221    2.6994    0.9877 H         1     ****    0.0000
     31 H           0.9581    4.2599    1.2111 H         1     ****    0.0000
     32 H           1.6828    3.3332    3.2943 H         1     ****    0.0000
     33 H           0.6611    1.4120    4.2858 H         1     ****    0.0000
     34 H           1.6736    1.0154    2.8620 H         1     ****    0.0000
     35 H          -1.4225    1.1913    2.9649 H         1     ****    0.0000
     36 H          -0.3087   -0.2529    2.7747 H         1     ****    0.0000
     37 H          -0.4326   -4.2421   -0.7697 H         1     ****    0.0000
     38 H          -2.0834   -4.6749    0.9321 H         1     ****    0.0000
@<TRIPOS>BOND
     1     1     2     1
     2     2     3     2
     3     2    22     1
     4     3     4     1
     5     3    23     1
     6     4     5     2
     7     4    14     1
     8     5     6     1
     9     5    21     1
    10     6     7     1
    11     7     8     1
    12     7    12     2
    13     8     9     2
    14     8    24     1
    15     9    10     1
    16     9    25     1
    17    10    11     2
    18    10    26     1
    19    11    12     1
    20    11    27     1
    21    12    13     1
    22    13    14     2
    23    14    15     1
    24    15    16     1
    25    15    20     1
    26    16    17     1
    27    16    28     1
    28    16    29     1
    29    17    18     1
    30    17    30     1
    31    17    31     1
    32    18    19     1
    33    18    32     1
    34    19    20     1
    35    19    33     1
    36    19    34     1
    37    20    35     1
    38    20    36     1
    39    21    22     2
    40    21    37     1
    41    22    38     1
