@<TRIPOS>MOLECULE
****
43 44 1 0 0
SMALL
USER_CHARGES


@<TRIPOS>ATOM
      1 C          -0.8251   -6.6175   -0.6761 C.3       1     ****    0.0000
      2 N          -1.4383   -5.3084   -0.8871 N.3       1     ****    0.0000
      3 C          -0.7349   -4.2219   -0.2035 C.3       1     ****    0.0000
      4 C          -1.4227   -2.8781   -0.4919 C.3       1     ****    0.0000
      5 C          -0.7109   -1.7064    0.2025 C.3       1     ****    0.0000
      6 C          -1.3990   -0.3728   -0.0861 C.3       1     ****    0.0000
      7 O          -0.6966    0.6527    0.5686 O.3       1     ****    0.0000
      8 C          -1.1823    1.9124    0.3233 C.ar      1     ****    0.0000
      9 C          -2.2435    2.3775    1.0114 C.ar      1     ****    0.0000
     10 C          -2.7220    3.6173    0.8353 C.ar      1     ****    0.0000
     11 C          -2.1096    4.4429   -0.0233 C.ar      1     ****    0.0000
     12 C          -1.0172    4.0180   -0.6736 C.ar      1     ****    0.0000
     13 C          -0.5375    2.7731   -0.4965 C.ar      1     ****    0.0000
     14 C           0.7207    2.3438   -1.2279 C.3       1     ****    0.0000
     15 C           1.8822    2.2069   -0.2670 C.ar      1     ****    0.0000
     16 C           2.3408    3.2808    0.4008 C.ar      1     ****    0.0000
     17 C           3.3661    3.1746    1.2602 C.ar      1     ****    0.0000
     18 C           3.9505    1.9843    1.4632 C.ar      1     ****    0.0000
     19 C           3.5053    0.9056    0.8016 C.ar      1     ****    0.0000
     20 C           2.4801    1.0200   -0.0571 C.ar      1     ****    0.0000
     21 H          -1.4112   -7.3948   -1.2172 H         1     ****    0.0000
     22 H           0.2153   -6.6334   -1.0726 H         1     ****    0.0000
     23 H          -0.8098   -6.8834    0.4055 H         1     ****    0.0000
     24 H          -1.4550   -5.1056   -1.9179 H         1     ****    0.0000
     25 H          -0.7242   -4.4083    0.8965 H         1     ****    0.0000
     26 H           0.3212   -4.1785   -0.5603 H         1     ****    0.0000
     27 H          -1.4397   -2.7019   -1.5941 H         1     ****    0.0000
     28 H          -2.4831   -2.9260   -0.1464 H         1     ****    0.0000
     29 H          -0.6925   -1.8815    1.3047 H         1     ****    0.0000
     30 H           0.3487   -1.6591   -0.1452 H         1     ****    0.0000
     31 H          -1.4016   -0.1711   -1.1823 H         1     ****    0.0000
     32 H          -2.4504   -0.3938    0.2827 H         1     ****    0.0000
     33 H          -2.7428    1.7175    1.7412 H         1     ****    0.0000
     34 H          -3.6036    3.9605    1.4018 H         1     ****    0.0000
     35 H          -2.4855    5.4687   -0.1729 H         1     ****    0.0000
     36 H          -0.5041    4.7178   -1.3539 H         1     ****    0.0000
     37 H           0.5204    1.3938   -1.7736 H         1     ****    0.0000
     38 H           1.0078    3.0752   -2.0181 H         1     ****    0.0000
     39 H           1.8703    4.2656    0.2443 H         1     ****    0.0000
     40 H           3.7283    4.0654    1.8004 H         1     ****    0.0000
     41 H           4.7925    1.8932    2.1695 H         1     ****    0.0000
     42 H           3.9822   -0.0756    0.9640 H         1     ****    0.0000
     43 H           2.1286    0.1220   -0.5910 H         1     ****    0.0000
@<TRIPOS>BOND
     1     1     2     1
     2     1    21     1
     3     1    22     1
     4     1    23     1
     5     2     3     1
     6     2    24     1
     7     3     4     1
     8     3    25     1
     9     3    26     1
    10     4     5     1
    11     4    27     1
    12     4    28     1
    13     5     6     1
    14     5    29     1
    15     5    30     1
    16     6     7     1
    17     6    31     1
    18     6    32     1
    19     7     8     1
    20     8     9     1
    21     8    13     2
    22     9    10     2
    23     9    33     1
    24    10    11     1
    25    10    34     1
    26    11    12     2
    27    11    35     1
    28    12    13     1
    29    12    36     1
    30    13    14     1
    31    14    15     1
    32    14    37     1
    33    14    38     1
    34    15    16     1
    35    15    20     2
    36    16    17     2
    37    16    39     1
    38    17    18     1
    39    17    40     1
    40    18    19     2
    41    18    41     1
    42    19    20     1
    43    19    42     1
    44    20    43     1
