@<TRIPOS>MOLECULE
****
34 34 1 0 0
SMALL
USER_CHARGES


@<TRIPOS>ATOM
      1 C          -0.1581   -2.3355    1.5619 C.3       1     ****    0.0000
      2 C          -0.6452   -1.0828    0.8168 C.3       1     ****    0.0000
      3 N          -0.3218   -1.0612   -0.6150 N.3       1     ****    0.0000
      4 C           1.0578   -1.1982   -1.1142 C.3       1     ****    0.0000
      5 C           1.5257   -2.6675   -1.1418 C.3       1     ****    0.0000
      6 C           1.0034   -0.7186   -2.5862 C.3       1     ****    0.0000
      7 C           2.0811   -0.3219   -0.3709 C.3       1     ****    0.0000
      8 C          -0.3077    0.2578    1.4892 C.2       1     ****    0.0000
      9 O           0.5128    0.2224    2.3838 O.2       1     ****    0.0000
     10 C          -0.9094    1.4261    1.1029 C.ar      1     ****    0.0000
     11 C          -0.5688    2.5919    1.6933 C.ar      1     ****    0.0000
     12 C          -1.1368    3.7560    1.3354 C.ar      1     ****    0.0000
     13 Cl         -0.6725    5.2291    2.1117 Cl        1     ****    0.0000
     14 C          -2.0686    3.7837    0.3718 C.ar      1     ****    0.0000
     15 C          -2.4229    2.6366   -0.2234 C.ar      1     ****    0.0000
     16 C          -1.8512    1.4772    0.1393 C.ar      1     ****    0.0000
     17 H          -0.4348   -3.2637    1.0114 H         1     ****    0.0000
     18 H           0.9402   -2.3390    1.7293 H         1     ****    0.0000
     19 H          -0.6277   -2.4050    2.5705 H         1     ****    0.0000
     20 H          -1.7616   -1.1614    0.8829 H         1     ****    0.0000
     21 H          -0.8918   -1.8131   -1.0779 H         1     ****    0.0000
     22 H           2.4493   -2.7834   -1.7529 H         1     ****    0.0000
     23 H           1.7818   -3.0636   -0.1378 H         1     ****    0.0000
     24 H           0.7477   -3.3312   -1.5826 H         1     ****    0.0000
     25 H           1.9975   -0.7814   -3.0836 H         1     ****    0.0000
     26 H           0.6685    0.3422   -2.6500 H         1     ****    0.0000
     27 H           0.2896   -1.3290   -3.1854 H         1     ****    0.0000
     28 H           1.7565    0.7424   -0.3343 H         1     ****    0.0000
     29 H           2.2546   -0.6744    0.6685 H         1     ****    0.0000
     30 H           3.0723   -0.3482   -0.8775 H         1     ****    0.0000
     31 H           0.1929    2.6315    2.4894 H         1     ****    0.0000
     32 H          -2.5469    4.7287    0.0646 H         1     ****    0.0000
     33 H          -3.1924    2.6496   -1.0143 H         1     ****    0.0000
     34 H          -2.2093    0.5849   -0.3952 H         1     ****    0.0000
@<TRIPOS>BOND
     1     1     2     1
     2     1    17     1
     3     1    18     1
     4     1    19     1
     5     2     3     1
     6     2     8     1
     7     2    20     1
     8     3     4     1
     9     3    21     1
    10     4     5     1
    11     4     6     1
    12     4     7     1
    13     5    22     1
    14     5    23     1
    15     5    24     1
    16     6    25     1
    17     6    26     1
    18     6    27     1
    19     7    28     1
    20     7    29     1
    21     7    30     1
    22     8     9     2
    23     8    10     1
    24    10    11     1
    25    10    16     2
    26    11    12     2
    27    11    31     1
    28    12    13     1
    29    12    14     1
    30    14    15     2
    31    14    32     1
    32    15    16     1
    33    15    33     1
    34    16    34     1
