@<TRIPOS>MOLECULE
****
45 47 1 0 0
SMALL
USER_CHARGES


@<TRIPOS>ATOM
      1 C           0.3396    0.3814    4.3525 C.3       1     ****    0.0000
      2 N          -0.6853   -0.2187    3.5074 N.3       1     ****    0.0000
      3 C          -1.3803   -1.2703    4.2353 C.3       1     ****    0.0000
      4 C          -0.0940   -0.6933    2.2579 C.3       1     ****    0.0000
      5 C          -1.1100   -1.2460    1.2420 C.3       1     ****    0.0000
      6 C          -0.5489   -1.5959   -0.1568 C.3       1     ****    0.0000
      7 N          -0.0815   -0.4153   -1.0157 N.3       1     ****    0.0000
      8 C          -1.0483    0.0214   -1.7680 C.ar      1     ****    0.0000
      9 C          -2.3529   -0.3240   -1.5886 C.ar      1     ****    0.0000
     10 C          -3.3981    0.0871   -2.3229 C.ar      1     ****    0.0000
     11 C          -3.1986    0.9115   -3.3510 C.ar      1     ****    0.0000
     12 C          -1.9367    1.2743   -3.5913 C.ar      1     ****    0.0000
     13 C          -0.9013    0.8487   -2.8377 C.ar      1     ****    0.0000
     14 C           0.4404    1.3283   -3.3189 C.3       1     ****    0.0000
     15 C           1.0658    2.0479   -2.1417 C.3       1     ****    0.0000
     16 C           1.7825    0.9996   -1.3335 C.ar      1     ****    0.0000
     17 C           1.1701   -0.1105   -0.8370 C.ar      1     ****    0.0000
     18 C           2.0284   -0.8348   -0.0677 C.ar      1     ****    0.0000
     19 C           3.3238   -0.5672    0.1652 C.ar      1     ****    0.0000
     20 Cl          4.2907   -1.5965    1.1663 Cl        1     ****    0.0000
     21 C           3.8815    0.5153   -0.3772 C.ar      1     ****    0.0000
     22 C           3.0832    1.2867   -1.1178 C.ar      1     ****    0.0000
     23 H           0.8450    1.2266    3.8313 H         1     ****    0.0000
     24 H          -0.1074    0.8093    5.2790 H         1     ****    0.0000
     25 H           1.1170   -0.3591    4.6507 H         1     ****    0.0000
     26 H          -2.2731   -1.6311    3.6786 H         1     ****    0.0000
     27 H          -1.7726   -0.8906    5.2064 H         1     ****    0.0000
     28 H          -0.7141   -2.1378    4.4466 H         1     ****    0.0000
     29 H           0.4189    0.1704    1.7714 H         1     ****    0.0000
     30 H           0.6734   -1.4742    2.4721 H         1     ****    0.0000
     31 H          -1.5665   -2.1787    1.6516 H         1     ****    0.0000
     32 H          -1.9279   -0.4934    1.1594 H         1     ****    0.0000
     33 H           0.1605   -2.4428   -0.0928 H         1     ****    0.0000
     34 H          -1.2549   -2.2514   -0.7146 H         1     ****    0.0000
     35 H          -2.7252   -0.9619   -0.7750 H         1     ****    0.0000
     36 H          -4.4265   -0.2370   -2.0851 H         1     ****    0.0000
     37 H          -4.0347    1.2675   -3.9743 H         1     ****    0.0000
     38 H          -1.7766    1.9405   -4.4560 H         1     ****    0.0000
     39 H           0.3618    2.0414   -4.1726 H         1     ****    0.0000
     40 H           1.0572    0.4795   -3.6935 H         1     ****    0.0000
     41 H           0.3241    2.5928   -1.5135 H         1     ****    0.0000
     42 H           1.7528    2.8323   -2.5375 H         1     ****    0.0000
     43 H           1.7550   -1.7508    0.4643 H         1     ****    0.0000
     44 H           4.9383    0.7809   -0.2116 H         1     ****    0.0000
     45 H           3.5437    2.1972   -1.5377 H         1     ****    0.0000
@<TRIPOS>BOND
     1     1     2     1
     2     1    23     1
     3     1    24     1
     4     1    25     1
     5     2     3     1
     6     2     4     1
     7     3    26     1
     8     3    27     1
     9     3    28     1
    10     4     5     1
    11     4    29     1
    12     4    30     1
    13     5     6     1
    14     5    31     1
    15     5    32     1
    16     6     7     1
    17     6    33     1
    18     6    34     1
    19     7     8     1
    20     7    17     1
    21     8     9     2
    22     8    13     1
    23     9    10     1
    24     9    35     1
    25    10    11     2
    26    10    36     1
    27    11    12     1
    28    11    37     1
    29    12    13     2
    30    12    38     1
    31    13    14     1
    32    14    15     1
    33    14    39     1
    34    14    40     1
    35    15    16     1
    36    15    41     1
    37    15    42     1
    38    16    17     2
    39    16    22     1
    40    17    18     1
    41    18    19     2
    42    18    43     1
    43    19    20     1
    44    19    21     1
    45    21    22     2
    46    21    44     1
    47    22    45     1
