@<TRIPOS>MOLECULE
****
42 44 1 0 0
SMALL
USER_CHARGES


@<TRIPOS>ATOM
      1 C           0.9804   -0.9125   -5.5404 C.3       1     ****    0.0000
      2 N           0.6640   -0.1679   -4.3240 N.3       1     ****    0.0000
      3 C           0.5812   -1.0136   -3.1323 C.3       1     ****    0.0000
      4 C           0.2847   -0.1582   -1.8904 C.3       1     ****    0.0000
      5 C           0.1861   -1.0111   -0.6115 C.3       1     ****    0.0000
      6 N          -0.0598   -0.2054    0.6638 N.3       1     ****    0.0000
      7 C           1.0441   -0.0193    1.3203 C.ar      1     ****    0.0000
      8 C           2.2731   -0.1668    0.7559 C.ar      1     ****    0.0000
      9 C           3.4528    0.0110    1.3699 C.ar      1     ****    0.0000
     10 C           3.4806    0.3643    2.6553 C.ar      1     ****    0.0000
     11 C           2.3029    0.5206    3.2649 C.ar      1     ****    0.0000
     12 C           1.1275    0.3388    2.6283 C.ar      1     ****    0.0000
     13 C          -0.0862    0.4985    3.5021 C.3       1     ****    0.0000
     14 C          -0.9393    1.5662    2.8475 C.3       1     ****    0.0000
     15 C          -1.8065    0.8816    1.8237 C.ar      1     ****    0.0000
     16 C          -3.1209    1.1570    1.9596 C.ar      1     ****    0.0000
     17 C          -4.0476    0.6865    1.1221 C.ar      1     ****    0.0000
     18 C          -3.6119   -0.0598    0.1076 C.ar      1     ****    0.0000
     19 C          -2.3010   -0.3218   -0.0097 C.ar      1     ****    0.0000
     20 C          -1.3149    0.0821    0.8373 C.ar      1     ****    0.0000
     21 H           1.0203   -0.2125   -6.4058 H         1     ****    0.0000
     22 H           1.9743   -1.4068   -5.4522 H         1     ****    0.0000
     23 H           0.2046   -1.6833   -5.7518 H         1     ****    0.0000
     24 H           1.4044    0.5617   -4.1715 H         1     ****    0.0000
     25 H          -0.2240   -1.7751   -3.2619 H         1     ****    0.0000
     26 H           1.5494   -1.5484   -2.9868 H         1     ****    0.0000
     27 H           1.0815    0.6132   -1.7794 H         1     ****    0.0000
     28 H          -0.6586    0.4104   -2.0585 H         1     ****    0.0000
     29 H          -0.5186   -1.8616   -0.7229 H         1     ****    0.0000
     30 H           1.0372   -1.7212   -0.5352 H         1     ****    0.0000
     31 H           2.4436   -0.3942   -0.3069 H         1     ****    0.0000
     32 H           4.4041   -0.1121    0.8233 H         1     ****    0.0000
     33 H           4.4333    0.5199    3.1872 H         1     ****    0.0000
     34 H           2.3345    0.7992    4.3319 H         1     ****    0.0000
     35 H           0.1735    0.8294    4.5349 H         1     ****    0.0000
     36 H          -0.6213   -0.4714    3.6228 H         1     ****    0.0000
     37 H          -0.3370    2.3752    2.3735 H         1     ****    0.0000
     38 H          -1.5361    2.0668    3.6460 H         1     ****    0.0000
     39 H          -3.4869    1.8058    2.7734 H         1     ****    0.0000
     40 H          -5.1162    0.9272    1.2424 H         1     ****    0.0000
     41 H          -4.3400   -0.4420   -0.6294 H         1     ****    0.0000
     42 H          -2.1487   -0.9208   -0.9174 H         1     ****    0.0000
@<TRIPOS>BOND
     1     1     2     1
     2     1    21     1
     3     1    22     1
     4     1    23     1
     5     2     3     1
     6     2    24     1
     7     3     4     1
     8     3    25     1
     9     3    26     1
    10     4     5     1
    11     4    27     1
    12     4    28     1
    13     5     6     1
    14     5    29     1
    15     5    30     1
    16     6     7     1
    17     6    20     1
    18     7     8     2
    19     7    12     1
    20     8     9     1
    21     8    31     1
    22     9    10     2
    23     9    32     1
    24    10    11     1
    25    10    33     1
    26    11    12     2
    27    11    34     1
    28    12    13     1
    29    13    14     1
    30    13    35     1
    31    13    36     1
    32    14    15     1
    33    14    37     1
    34    14    38     1
    35    15    16     2
    36    15    20     1
    37    16    17     1
    38    16    39     1
    39    17    18     2
    40    17    40     1
    41    18    19     1
    42    18    41     1
    43    19    20     2
    44    19    42     1
