@<TRIPOS>MOLECULE
****
43 45 1 0 0
SMALL
USER_CHARGES


@<TRIPOS>ATOM
      1 C           1.4279    3.0013    3.4529 C.3       1     ****    0.0000
      2 N           1.2596    3.0694    2.0072 N.3       1     ****    0.0000
      3 C           0.7133    4.3636    1.6255 C.3       1     ****    0.0000
      4 C           0.4358    1.9581    1.5340 C.3       1     ****    0.0000
      5 C           0.3172    1.8810   -0.0107 C.3       1     ****    0.0000
      6 N          -0.1726    0.5624   -0.4974 N.am      1     ****    0.0000
      7 C           0.3577   -0.0017   -1.6151 C.ar      1     ****    0.0000
      8 C           0.9865    0.8641   -2.4478 C.ar      1     ****    0.0000
      9 C           1.5881    0.5244   -3.5914 C.ar      1     ****    0.0000
     10 C           1.5779   -0.7639   -3.9223 C.ar      1     ****    0.0000
     11 C           0.9347   -1.6213   -3.1198 C.ar      1     ****    0.0000
     12 C           0.2589   -1.3079   -1.9807 C.ar      1     ****    0.0000
     13 N          -0.3169   -2.2221   -1.2763 N.3       1     ****    0.0000
     14 C          -0.3357   -3.5792   -1.9732 C.3       1     ****    0.0000
     15 C          -0.9615   -2.2566   -0.1608 C.ar      1     ****    0.0000
     16 C          -1.2057   -3.4415    0.4618 C.ar      1     ****    0.0000
     17 C          -1.8885   -3.6107    1.6020 C.ar      1     ****    0.0000
     18 C          -2.3823   -2.5387    2.2189 C.ar      1     ****    0.0000
     19 C          -2.1381   -1.3477    1.6642 C.ar      1     ****    0.0000
     20 C          -1.4400   -1.1826    0.5145 C.ar      1     ****    0.0000
     21 C          -1.3028    0.1171    0.1283 C.2       1     ****    0.0000
     22 O          -2.0782    0.9566    0.5357 O.2       1     ****    0.0000
     23 H           1.8950    2.0363    3.7563 H         1     ****    0.0000
     24 H           2.1100    3.8055    3.8127 H         1     ****    0.0000
     25 H           0.4568    3.1034    3.9896 H         1     ****    0.0000
     26 H           0.7101    4.4959    0.5210 H         1     ****    0.0000
     27 H           1.3406    5.1936    2.0239 H         1     ****    0.0000
     28 H          -0.3257    4.5022    2.0029 H         1     ****    0.0000
     29 H           0.8979    0.9977    1.8725 H         1     ****    0.0000
     30 H          -0.5656    2.0186    2.0177 H         1     ****    0.0000
     31 H          -0.3147    2.7033   -0.4195 H         1     ****    0.0000
     32 H           1.3813    2.0486   -0.3063 H         1     ****    0.0000
     33 H           1.0233    1.9517   -2.2813 H         1     ****    0.0000
     34 H           2.0849    1.2699   -4.2346 H         1     ****    0.0000
     35 H           2.0971   -1.1004   -4.8363 H         1     ****    0.0000
     36 H           1.0760   -2.6389   -3.5123 H         1     ****    0.0000
     37 H          -1.2405   -4.1958   -1.7816 H         1     ****    0.0000
     38 H          -0.5889   -3.5171   -3.0544 H         1     ****    0.0000
     39 H           0.5936   -4.1699   -1.7955 H         1     ****    0.0000
     40 H          -0.8056   -4.4106    0.1230 H         1     ****    0.0000
     41 H          -2.0259   -4.6108    2.0483 H         1     ****    0.0000
     42 H          -2.9370   -2.6356    3.1668 H         1     ****    0.0000
     43 H          -2.5376   -0.5061    2.2569 H         1     ****    0.0000
@<TRIPOS>BOND
     1     1     2     1
     2     1    23     1
     3     1    24     1
     4     1    25     1
     5     2     3     1
     6     2     4     1
     7     3    26     1
     8     3    27     1
     9     3    28     1
    10     4     5     1
    11     4    29     1
    12     4    30     1
    13     5     6     1
    14     5    31     1
    15     5    32     1
    16     6     7     1
    17     6    21     1
    18     7     8     1
    19     7    12     2
    20     8     9     2
    21     8    33     1
    22     9    10     1
    23     9    34     1
    24    10    11     2
    25    10    35     1
    26    11    12     1
    27    11    36     1
    28    12    13     1
    29    13    14     1
    30    13    15     1
    31    14    37     1
    32    14    38     1
    33    14    39     1
    34    15    16     1
    35    15    20     2
    36    16    17     2
    37    16    40     1
    38    17    18     1
    39    17    41     1
    40    18    19     2
    41    18    42     1
    42    19    20     1
    43    19    43     1
    44    20    21     1
    45    21    22     2
