@<TRIPOS>MOLECULE
****
42 44 1 0 0
SMALL
USER_CHARGES


@<TRIPOS>ATOM
      1 C           3.8690   -0.1356    3.0415 C.3       1     ****    0.0000
      2 N           2.6229   -0.7994    2.6814 N.3       1     ****    0.0000
      3 C           2.7005   -2.2181    2.9970 C.3       1     ****    0.0000
      4 C           2.3045   -0.5562    1.2763 C.3       1     ****    0.0000
      5 C           0.9433   -1.1344    0.8308 C.3       1     ****    0.0000
      6 C           0.5786   -0.6167   -0.5554 C.2       1     ****    0.0000
      7 C          -0.5503    0.0263   -0.9647 C.2       1     ****    0.0000
      8 C          -1.6428   -0.2055   -0.1797 C.ar      1     ****    0.0000
      9 C          -1.7956   -1.4351    0.3696 C.ar      1     ****    0.0000
     10 C          -2.8016   -1.7890    1.1823 C.ar      1     ****    0.0000
     11 C          -3.7549   -0.8990    1.4710 C.ar      1     ****    0.0000
     12 C          -3.6809    0.3045    0.8922 C.ar      1     ****    0.0000
     13 C          -2.6672    0.6439    0.0702 C.ar      1     ****    0.0000
     14 C          -2.7474    2.0065   -0.5599 C.3       1     ****    0.0000
     15 S          -3.2450    1.4476   -2.2125 S.3       1     ****    0.0000
     16 C          -1.5038    1.4079   -2.7470 C.ar      1     ****    0.0000
     17 C          -1.3639    2.1240   -3.8798 C.ar      1     ****    0.0000
     18 C          -0.1683    2.2947   -4.4510 C.ar      1     ****    0.0000
     19 C           0.8844    1.7554   -3.8330 C.ar      1     ****    0.0000
     20 C           0.7120    1.0518   -2.7028 C.ar      1     ****    0.0000
     21 C          -0.4786    0.7998   -2.0968 C.ar      1     ****    0.0000
     22 H           3.8061    0.9615    2.8572 H         1     ****    0.0000
     23 H           4.0862   -0.2577    4.1275 H         1     ****    0.0000
     24 H           4.7344   -0.5375    2.4662 H         1     ****    0.0000
     25 H           1.7131   -2.7168    2.8783 H         1     ****    0.0000
     26 H           2.9858   -2.3743    4.0626 H         1     ****    0.0000
     27 H           3.4461   -2.7441    2.3578 H         1     ****    0.0000
     28 H           2.2601    0.5482    1.1071 H         1     ****    0.0000
     29 H           3.1142   -0.9534    0.6183 H         1     ****    0.0000
     30 H           1.0148   -2.2468    0.7869 H         1     ****    0.0000
     31 H           0.2074   -0.8300    1.6106 H         1     ****    0.0000
     32 H           1.4543   -0.7653   -1.2025 H         1     ****    0.0000
     33 H          -1.1102   -2.2644    0.1278 H         1     ****    0.0000
     34 H          -2.8643   -2.8122    1.5899 H         1     ****    0.0000
     35 H          -4.6002   -1.1664    2.1260 H         1     ****    0.0000
     36 H          -4.4997    1.0156    1.0941 H         1     ****    0.0000
     37 H          -1.7915    2.5701   -0.4925 H         1     ****    0.0000
     38 H          -3.5330    2.6557   -0.1128 H         1     ****    0.0000
     39 H          -2.2235    2.6088   -4.3756 H         1     ****    0.0000
     40 H          -0.0490    2.8856   -5.3737 H         1     ****    0.0000
     41 H           1.8927    1.9115   -4.2549 H         1     ****    0.0000
     42 H           1.6869    0.7275   -2.3124 H         1     ****    0.0000
@<TRIPOS>BOND
     1     1     2     1
     2     1    22     1
     3     1    23     1
     4     1    24     1
     5     2     3     1
     6     2     4     1
     7     3    25     1
     8     3    26     1
     9     3    27     1
    10     4     5     1
    11     4    28     1
    12     4    29     1
    13     5     6     1
    14     5    30     1
    15     5    31     1
    16     6     7     2
    17     6    32     1
    18     7     8     1
    19     7    21     1
    20     8     9     2
    21     8    13     1
    22     9    10     1
    23     9    33     1
    24    10    11     2
    25    10    34     1
    26    11    12     1
    27    11    35     1
    28    12    13     2
    29    12    36     1
    30    13    14     1
    31    14    15     1
    32    14    37     1
    33    14    38     1
    34    15    16     1
    35    16    17     2
    36    16    21     1
    37    17    18     1
    38    17    39     1
    39    18    19     2
    40    18    40     1
    41    19    20     1
    42    19    41     1
    43    20    21     2
    44    20    42     1
