@<TRIPOS>MOLECULE
****
42 44 1 0 0
SMALL
USER_CHARGES


@<TRIPOS>ATOM
      1 C          -0.7785   -0.7634   -0.0793 C.2       1     ****    0.0000
      2 C          -1.2791   -0.1047    1.2002 C.3       1     ****    0.0000
      3 C          -0.9971   -0.9729    2.4465 C.3       1     ****    0.0000
      4 N          -1.5969   -0.4674    3.6801 N.3       1     ****    0.0000
      5 C          -1.3643   -1.4016    4.7745 C.3       1     ****    0.0000
      6 C          -1.1104    0.8559    4.0429 C.3       1     ****    0.0000
      7 C          -0.0431   -0.2259   -1.0905 C.2       1     ****    0.0000
      8 C           0.0627    1.1283   -1.0730 C.ar      1     ****    0.0000
      9 C          -1.0380    1.8748   -0.8268 C.ar      1     ****    0.0000
     10 C          -1.0307    3.2160   -0.8094 C.ar      1     ****    0.0000
     11 C           0.1064    3.8742   -1.0610 C.ar      1     ****    0.0000
     12 C           1.2065    3.1640   -1.3400 C.ar      1     ****    0.0000
     13 C           1.1834    1.8184   -1.3567 C.ar      1     ****    0.0000
     14 C           2.4473    1.0733   -1.6500 C.3       1     ****    0.0000
     15 O           2.2831    0.4442   -2.8890 O.3       1     ****    0.0000
     16 C           1.5433   -0.7087   -2.8912 C.ar      1     ****    0.0000
     17 C           1.9806   -1.6138   -3.7937 C.ar      1     ****    0.0000
     18 C           1.4569   -2.8332   -3.9437 C.ar      1     ****    0.0000
     19 C           0.4471   -3.1640   -3.1383 C.ar      1     ****    0.0000
     20 C           0.0189   -2.2773   -2.2282 C.ar      1     ****    0.0000
     21 C           0.5338   -1.0355   -2.0338 C.ar      1     ****    0.0000
     22 H          -0.9410   -1.8459    0.0165 H         1     ****    0.0000
     23 H          -0.7803    0.8763    1.3611 H         1     ****    0.0000
     24 H          -2.3834    0.0405    1.1252 H         1     ****    0.0000
     25 H          -1.4110   -1.9927    2.2524 H         1     ****    0.0000
     26 H           0.1073   -1.0884    2.5649 H         1     ****    0.0000
     27 H          -1.8755   -1.0624    5.7046 H         1     ****    0.0000
     28 H          -1.7826   -2.4072    4.5397 H         1     ****    0.0000
     29 H          -0.2785   -1.5176    4.9966 H         1     ****    0.0000
     30 H          -1.5368    1.1846    5.0182 H         1     ****    0.0000
     31 H          -1.4341    1.6267    3.3091 H         1     ****    0.0000
     32 H           0.0003    0.8806    4.1252 H         1     ****    0.0000
     33 H          -2.0266    1.4065   -0.6835 H         1     ****    0.0000
     34 H          -1.9595    3.7784   -0.6145 H         1     ****    0.0000
     35 H           0.1308    4.9763   -1.0582 H         1     ****    0.0000
     36 H           2.1395    3.7097   -1.5584 H         1     ****    0.0000
     37 H           2.6997    0.3285   -0.8623 H         1     ****    0.0000
     38 H           3.3236    1.7548   -1.7395 H         1     ****    0.0000
     39 H           2.8252   -1.3486   -4.4549 H         1     ****    0.0000
     40 H           1.8375   -3.5357   -4.7028 H         1     ****    0.0000
     41 H          -0.0345   -4.1513   -3.2453 H         1     ****    0.0000
     42 H          -0.8594   -2.6678   -1.6935 H         1     ****    0.0000
@<TRIPOS>BOND
     1     1     2     1
     2     1     7     2
     3     1    22     1
     4     2     3     1
     5     2    23     1
     6     2    24     1
     7     3     4     1
     8     3    25     1
     9     3    26     1
    10     4     5     1
    11     4     6     1
    12     5    27     1
    13     5    28     1
    14     5    29     1
    15     6    30     1
    16     6    31     1
    17     6    32     1
    18     7     8     1
    19     7    21     1
    20     8     9     2
    21     8    13     1
    22     9    10     1
    23     9    33     1
    24    10    11     2
    25    10    34     1
    26    11    12     1
    27    11    35     1
    28    12    13     2
    29    12    36     1
    30    13    14     1
    31    14    15     1
    32    14    37     1
    33    14    38     1
    34    15    16     1
    35    16    17     2
    36    16    21     1
    37    17    18     1
    38    17    39     1
    39    18    19     2
    40    18    40     1
    41    19    20     1
    42    19    41     1
    43    20    21     2
    44    20    42     1
