@<TRIPOS>MOLECULE
****
40 42 1 0 0
SMALL
USER_CHARGES


@<TRIPOS>ATOM
      1 C          -3.4679    2.1593    3.2477 C.3       1     ****    0.0000
      2 N          -2.7787    1.8260    2.0035 N.3       1     ****    0.0000
      3 C          -1.7517    0.7963    2.1679 C.3       1     ****    0.0000
      4 C          -1.0969    0.4798    0.8127 C.3       1     ****    0.0000
      5 C           0.0165   -0.5719    0.9251 C.3       1     ****    0.0000
      6 O           0.6269   -0.8040   -0.3255 O.3       1     ****    0.0000
      7 C           1.3733    0.1688   -0.9535 C.ar      1     ****    0.0000
      8 C           1.8646    1.2616   -0.3332 C.ar      1     ****    0.0000
      9 C           2.5702    2.1998   -0.9794 C.ar      1     ****    0.0000
     10 C           2.7978    2.0745   -2.2921 C.ar      1     ****    0.0000
     11 C           2.3136    1.0095   -2.9524 C.ar      1     ****    0.0000
     12 C           2.5357    0.8878   -4.2745 C.ar      1     ****    0.0000
     13 C           2.0604   -0.1640   -4.9559 C.ar      1     ****    0.0000
     14 C           1.3575   -1.1016   -4.3073 C.ar      1     ****    0.0000
     15 C           1.1372   -0.9798   -2.9894 C.ar      1     ****    0.0000
     16 C           1.6063    0.0714   -2.2860 C.ar      1     ****    0.0000
     17 C          -0.5114   -1.8896    1.4721 C.ar      1     ****    0.0000
     18 C          -0.1222   -2.4291    2.6374 C.ar      1     ****    0.0000
     19 C          -0.7657   -3.5834    2.8338 C.ar      1     ****    0.0000
     20 C          -1.5769   -3.7960    1.7916 C.ar      1     ****    0.0000
     21 S          -1.5130   -2.7286    0.7893 S.2       1     ****    0.0000
     22 H          -4.2268    2.9507    3.0526 H         1     ****    0.0000
     23 H          -3.9972    1.2684    3.6553 H         1     ****    0.0000
     24 H          -2.7533    2.5429    4.0112 H         1     ****    0.0000
     25 H          -3.4865    1.4893    1.3038 H         1     ****    0.0000
     26 H          -0.9723    1.1471    2.8851 H         1     ****    0.0000
     27 H          -2.2201   -0.1244    2.5868 H         1     ****    0.0000
     28 H          -1.8769    0.1358    0.0932 H         1     ****    0.0000
     29 H          -0.6959    1.4322    0.3946 H         1     ****    0.0000
     30 H           0.7952   -0.2316    1.6458 H         1     ****    0.0000
     31 H           1.7144    1.4297    0.7440 H         1     ****    0.0000
     32 H           2.9614    3.0755   -0.4341 H         1     ****    0.0000
     33 H           3.3789    2.8581   -2.8074 H         1     ****    0.0000
     34 H           3.1122    1.6495   -4.8272 H         1     ****    0.0000
     35 H           2.2458   -0.2583   -6.0389 H         1     ****    0.0000
     36 H           0.9636   -1.9720   -4.8589 H         1     ****    0.0000
     37 H           0.5560   -1.7858   -2.5105 H         1     ****    0.0000
     38 H           0.6118   -1.9952    3.3298 H         1     ****    0.0000
     39 H          -0.6477   -4.2445    3.7028 H         1     ****    0.0000
     40 H          -2.2295   -4.6736    1.6864 H         1     ****    0.0000
@<TRIPOS>BOND
     1     1     2     1
     2     1    22     1
     3     1    23     1
     4     1    24     1
     5     2     3     1
     6     2    25     1
     7     3     4     1
     8     3    26     1
     9     3    27     1
    10     4     5     1
    11     4    28     1
    12     4    29     1
    13     5     6     1
    14     5    17     1
    15     5    30     1
    16     6     7     1
    17     7     8     2
    18     7    16     1
    19     8     9     1
    20     8    31     1
    21     9    10     2
    22     9    32     1
    23    10    11     1
    24    10    33     1
    25    11    12     2
    26    11    16     1
    27    12    13     1
    28    12    34     1
    29    13    14     2
    30    13    35     1
    31    14    15     1
    32    14    36     1
    33    15    16     2
    34    15    37     1
    35    17    18     2
    36    17    21     1
    37    18    19     1
    38    18    38     1
    39    19    20     2
    40    19    39     1
    41    20    21     1
    42    20    40     1
