@<TRIPOS>MOLECULE
****
45 47 1 0 0
SMALL
USER_CHARGES


@<TRIPOS>ATOM
      1 C          -3.5571    3.7599    0.4912 C.3       1     ****    0.0000
      2 N          -2.2758    3.1225    0.2169 N.3       1     ****    0.0000
      3 C          -1.7650    3.5600   -1.0741 C.3       1     ****    0.0000
      4 C          -2.4020    1.6699    0.3086 C.3       1     ****    0.0000
      5 C          -1.0731    0.9101    0.1336 C.3       1     ****    0.0000
      6 C          -1.2242   -0.5944    0.4259 C.3       1     ****    0.0000
      7 C           0.0896   -1.3963    0.4944 C.3       1     ****    0.0000
      8 O          -0.2587   -2.7743    0.6437 O.3       1     ****    0.0000
      9 C          -0.2485   -3.3887   -0.6405 C.3       1     ****    0.0000
     10 C           0.5753   -2.4830   -1.4992 C.ar      1     ****    0.0000
     11 C           0.7856   -1.3398   -0.8457 C.ar      1     ****    0.0000
     12 C           1.5261   -0.3679   -1.3947 C.ar      1     ****    0.0000
     13 C           2.0388   -0.5711   -2.6205 C.ar      1     ****    0.0000
     14 C           1.8201   -1.7244   -3.2807 C.ar      1     ****    0.0000
     15 C           1.0838   -2.6996   -2.7181 C.ar      1     ****    0.0000
     16 C           2.3344   -1.9048   -4.4787 C.1       1     ****    0.0000
     17 N           2.7847   -2.0642   -5.5338 N.1       1     ****    0.0000
     18 C           1.0517   -1.0285    1.6233 C.ar      1     ****    0.0000
     19 C           2.3242   -1.4703    1.5877 C.ar      1     ****    0.0000
     20 C           3.1993   -1.1876    2.5648 C.ar      1     ****    0.0000
     21 C           2.8168   -0.4607    3.6244 C.ar      1     ****    0.0000
     22 F           3.6734   -0.1806    4.5931 F         1     ****    0.0000
     23 C           1.5467   -0.0363    3.6924 C.ar      1     ****    0.0000
     24 C           0.6792   -0.3251    2.7095 C.ar      1     ****    0.0000
     25 H          -3.9366    3.4790    1.5004 H         1     ****    0.0000
     26 H          -3.4581    4.8697    0.4934 H         1     ****    0.0000
     27 H          -4.3287    3.4808   -0.2627 H         1     ****    0.0000
     28 H          -0.7166    3.2240   -1.2337 H         1     ****    0.0000
     29 H          -1.7302    4.6720   -1.1330 H         1     ****    0.0000
     30 H          -2.3933    3.1880   -1.9155 H         1     ****    0.0000
     31 H          -2.8000    1.4100    1.3197 H         1     ****    0.0000
     32 H          -3.1396    1.2904   -0.4382 H         1     ****    0.0000
     33 H          -0.7177    1.0260   -0.9159 H         1     ****    0.0000
     34 H          -0.3064    1.3653    0.8016 H         1     ****    0.0000
     35 H          -1.7943   -0.7476    1.3710 H         1     ****    0.0000
     36 H          -1.8771   -1.0225   -0.3729 H         1     ****    0.0000
     37 H           0.1942   -4.4053   -0.5521 H         1     ****    0.0000
     38 H          -1.2911   -3.4522   -1.0259 H         1     ****    0.0000
     39 H           1.7143    0.5713   -0.8515 H         1     ****    0.0000
     40 H           2.6498    0.2253   -3.0796 H         1     ****    0.0000
     41 H           0.8959   -3.6580   -3.2279 H         1     ****    0.0000
     42 H           2.6750   -2.0866    0.7434 H         1     ****    0.0000
     43 H           4.2356   -1.5594    2.5018 H         1     ****    0.0000
     44 H           1.2140    0.5478    4.5668 H         1     ****    0.0000
     45 H          -0.3537    0.0347    2.8293 H         1     ****    0.0000
@<TRIPOS>BOND
     1     1     2     1
     2     1    25     1
     3     1    26     1
     4     1    27     1
     5     2     3     1
     6     2     4     1
     7     3    28     1
     8     3    29     1
     9     3    30     1
    10     4     5     1
    11     4    31     1
    12     4    32     1
    13     5     6     1
    14     5    33     1
    15     5    34     1
    16     6     7     1
    17     6    35     1
    18     6    36     1
    19     7     8     1
    20     7    11     1
    21     7    18     1
    22     8     9     1
    23     9    10     1
    24     9    37     1
    25     9    38     1
    26    10    11     2
    27    10    15     1
    28    11    12     1
    29    12    13     2
    30    12    39     1
    31    13    14     1
    32    13    40     1
    33    14    15     2
    34    14    16     1
    35    15    41     1
    36    16    17     3
    37    18    19     1
    38    18    24     2
    39    19    20     2
    40    19    42     1
    41    20    21     1
    42    20    43     1
    43    21    22     1
    44    21    23     2
    45    23    24     1
    46    23    44     1
    47    24    45     1
