@<TRIPOS>MOLECULE
****
40 41 1 0 0
SMALL
USER_CHARGES


@<TRIPOS>ATOM
      1 C           2.4417   -4.4572   -0.5266 C.3       1     ****    0.0000
      2 N           2.2039   -3.0711   -0.1304 N.3       1     ****    0.0000
      3 C           0.7823   -2.7334   -0.0245 C.3       1     ****    0.0000
      4 C           0.6160   -1.2647    0.4022 C.3       1     ****    0.0000
      5 C          -0.8020   -0.8183    0.8015 C.3       1     ****    0.0000
      6 O          -0.7619    0.3012    1.6647 O.3       1     ****    0.0000
      7 C          -0.0582    1.4385    1.3399 C.ar      1     ****    0.0000
      8 C           0.3133    1.8248    0.1031 C.ar      1     ****    0.0000
      9 C           1.0244    2.9416   -0.1189 C.ar      1     ****    0.0000
     10 C           1.4020    3.7453    0.8895 C.ar      1     ****    0.0000
     11 C           1.0922    3.3437    2.1334 C.ar      1     ****    0.0000
     12 C           0.3798    2.2264    2.3416 C.ar      1     ****    0.0000
     13 C           2.2545    4.9685    0.6453 C.3       1     ****    0.0000
     14 F           3.0060    4.8570   -0.4390 F         1     ****    0.0000
     15 F           1.4700    6.0212    0.4704 F         1     ****    0.0000
     16 F           3.0565    5.2433    1.6622 F         1     ****    0.0000
     17 C          -1.8766   -0.7538   -0.2827 C.ar      1     ****    0.0000
     18 C          -2.2889   -1.8794   -0.8984 C.ar      1     ****    0.0000
     19 C          -3.2395   -1.8691   -1.8456 C.ar      1     ****    0.0000
     20 C          -3.8276   -0.7157   -2.1920 C.ar      1     ****    0.0000
     21 C          -3.4653    0.4129   -1.5667 C.ar      1     ****    0.0000
     22 C          -2.5131    0.3850   -0.6208 C.ar      1     ****    0.0000
     23 H           3.5380   -4.6434   -0.5901 H         1     ****    0.0000
     24 H           2.0166   -5.1601    0.2253 H         1     ****    0.0000
     25 H           1.9943   -4.6720   -1.5238 H         1     ****    0.0000
     26 H           2.6633   -2.9040    0.7996 H         1     ****    0.0000
     27 H           0.3023   -2.8987   -1.0166 H         1     ****    0.0000
     28 H           0.3018   -3.4006    0.7291 H         1     ****    0.0000
     29 H           1.2882   -1.1052    1.2814 H         1     ****    0.0000
     30 H           1.0206   -0.6402   -0.4250 H         1     ****    0.0000
     31 H          -1.1807   -1.6293    1.4790 H         1     ****    0.0000
     32 H           0.0325    1.2360   -0.7832 H         1     ****    0.0000
     33 H           1.2939    3.2011   -1.1564 H         1     ****    0.0000
     34 H           1.4195    3.9360    3.0038 H         1     ****    0.0000
     35 H           0.1448    1.9400    3.3816 H         1     ****    0.0000
     36 H          -1.8592   -2.8535   -0.6191 H         1     ****    0.0000
     37 H          -3.5494   -2.8104   -2.3299 H         1     ****    0.0000
     38 H          -4.6155   -0.6996   -2.9631 H         1     ****    0.0000
     39 H          -3.9626    1.3638   -1.8232 H         1     ****    0.0000
     40 H          -2.2811    1.3377   -0.1216 H         1     ****    0.0000
@<TRIPOS>BOND
     1     1     2     1
     2     1    23     1
     3     1    24     1
     4     1    25     1
     5     2     3     1
     6     2    26     1
     7     3     4     1
     8     3    27     1
     9     3    28     1
    10     4     5     1
    11     4    29     1
    12     4    30     1
    13     5     6     1
    14     5    17     1
    15     5    31     1
    16     6     7     1
    17     7     8     1
    18     7    12     2
    19     8     9     2
    20     8    32     1
    21     9    10     1
    22     9    33     1
    23    10    11     2
    24    10    13     1
    25    11    12     1
    26    11    34     1
    27    12    35     1
    28    13    14     1
    29    13    15     1
    30    13    16     1
    31    17    18     1
    32    17    22     2
    33    18    19     2
    34    18    36     1
    35    19    20     1
    36    19    37     1
    37    20    21     2
    38    20    38     1
    39    21    22     1
    40    21    39     1
    41    22    40     1
