@<TRIPOS>MOLECULE
****
43 43 1 0 0
SMALL
USER_CHARGES


@<TRIPOS>ATOM
      1 C           2.7734    0.8674   -5.8671 C.3       1     ****    0.0000
      2 O           2.4035    1.4412   -4.6314 O.3       1     ****    0.0000
      3 C           1.7709    0.5136   -3.7835 C.3       1     ****    0.0000
      4 C           1.4033    1.2107   -2.4727 C.3       1     ****    0.0000
      5 C           0.7054    0.2508   -1.4906 C.3       1     ****    0.0000
      6 C           0.3336    0.9518   -0.1726 C.3       1     ****    0.0000
      7 C          -0.3514    0.2215    0.9793 C.2       1     ****    0.0000
      8 N          -0.6604   -1.0042    0.8729 N.2       1     ****    0.0000
      9 O          -0.4620   -1.7864   -0.1700 O.3       1     ****    0.0000
     10 C          -0.9682   -3.0842    0.0025 C.3       1     ****    0.0000
     11 C          -0.7009   -3.8939   -1.2635 C.3       1     ****    0.0000
     12 N          -1.2060   -5.2685   -1.1152 N.3       1     ****    0.0000
     13 C          -0.6458    0.8586    2.1426 C.ar      1     ****    0.0000
     14 C          -1.2530    0.2346    3.1747 C.ar      1     ****    0.0000
     15 C          -1.5430    0.8627    4.3255 C.ar      1     ****    0.0000
     16 C          -1.2196    2.1511    4.5218 C.ar      1     ****    0.0000
     17 C          -0.6487    2.7948    3.4908 C.ar      1     ****    0.0000
     18 C          -0.3608    2.1620    2.3420 C.ar      1     ****    0.0000
     19 C          -1.5992    2.8747    5.7927 C.3       1     ****    0.0000
     20 F          -2.6760    2.3628    6.3684 F         1     ****    0.0000
     21 F          -0.6068    2.7780    6.6644 F         1     ****    0.0000
     22 F          -1.8238    4.1648    5.5978 F         1     ****    0.0000
     23 H           3.2642    1.6566   -6.4796 H         1     ****    0.0000
     24 H           3.4973    0.0378   -5.7064 H         1     ****    0.0000
     25 H           1.8726    0.5028   -6.4090 H         1     ****    0.0000
     26 H           0.8507    0.1278   -4.2801 H         1     ****    0.0000
     27 H           2.4652   -0.3345   -3.5815 H         1     ****    0.0000
     28 H           2.3294    1.6199   -2.0025 H         1     ****    0.0000
     29 H           0.7319    2.0753   -2.6920 H         1     ****    0.0000
     30 H          -0.2131   -0.1361   -1.9930 H         1     ****    0.0000
     31 H           1.4035   -0.5969   -1.2906 H         1     ****    0.0000
     32 H           1.2906    1.3642    0.2315 H         1     ****    0.0000
     33 H          -0.3291    1.8066   -0.4539 H         1     ****    0.0000
     34 H          -0.4645   -3.5577    0.8777 H         1     ****    0.0000
     35 H          -2.0645   -3.0248    0.1983 H         1     ****    0.0000
     36 H          -1.1951   -3.4164   -2.1420 H         1     ****    0.0000
     37 H           0.3946   -3.9372   -1.4678 H         1     ****    0.0000
     38 H          -0.9752   -5.8278   -1.9548 H         1     ****    0.0000
     39 H          -0.7284   -5.7467   -0.3315 H         1     ****    0.0000
     40 H          -1.5490   -0.8268    3.1246 H         1     ****    0.0000
     41 H          -2.0506    0.2990    5.1263 H         1     ****    0.0000
     42 H          -0.4003    3.8653    3.5851 H         1     ****    0.0000
     43 H           0.1192    2.7799    1.5666 H         1     ****    0.0000
@<TRIPOS>BOND
     1     1     2     1
     2     1    23     1
     3     1    24     1
     4     1    25     1
     5     2     3     1
     6     3     4     1
     7     3    26     1
     8     3    27     1
     9     4     5     1
    10     4    28     1
    11     4    29     1
    12     5     6     1
    13     5    30     1
    14     5    31     1
    15     6     7     1
    16     6    32     1
    17     6    33     1
    18     7     8     2
    19     7    13     1
    20     8     9     1
    21     9    10     1
    22    10    11     1
    23    10    34     1
    24    10    35     1
    25    11    12     1
    26    11    36     1
    27    11    37     1
    28    12    38     1
    29    12    39     1
    30    13    14     1
    31    13    18     2
    32    14    15     2
    33    14    40     1
    34    15    16     1
    35    15    41     1
    36    16    17     2
    37    16    19     1
    38    17    18     1
    39    17    42     1
    40    18    43     1
    41    19    20     1
    42    19    21     1
    43    19    22     1
