@<TRIPOS>MOLECULE
****
30 31 1 0 0
SMALL
USER_CHARGES


@<TRIPOS>ATOM
      1 C          -2.5332   -3.4899   -0.7162 C.3       1     ****    0.0000
      2 C          -1.1981   -3.1288   -1.2951 C.ar      1     ****    0.0000
      3 C          -0.7265   -1.8872   -1.4817 C.ar      1     ****    0.0000
      4 C           0.4917   -2.0382   -2.0265 C.ar      1     ****    0.0000
      5 N           0.6602   -3.2891   -2.1397 N.ar      1     ****    0.0000
      6 O          -0.3779   -3.9598   -1.6766 O.2       1     ****    0.0000
      7 C           1.3595   -1.0633   -2.4086 C.2       1     ****    0.0000
      8 O           2.4078   -1.3023   -2.9609 O.2       1     ****    0.0000
      9 N           1.0690    0.2480   -2.1618 N.am      1     ****    0.0000
     10 N           0.4937    0.7080   -1.0269 N.3       1     ****    0.0000
     11 C           1.2195    1.8327   -0.4465 C.3       1     ****    0.0000
     12 C           0.6923    2.0778    0.9484 C.ar      1     ****    0.0000
     13 C          -0.0190    3.1800    1.2453 C.ar      1     ****    0.0000
     14 C          -0.4861    3.3840    2.4870 C.ar      1     ****    0.0000
     15 C          -0.2471    2.4824    3.4513 C.ar      1     ****    0.0000
     16 C           0.4605    1.3786    3.1674 C.ar      1     ****    0.0000
     17 C           0.9253    1.1812    1.9240 C.ar      1     ****    0.0000
     18 H          -2.3980   -4.1082    0.1999 H         1     ****    0.0000
     19 H          -3.1211   -2.5858   -0.4404 H         1     ****    0.0000
     20 H          -3.1248   -4.0765   -1.4550 H         1     ****    0.0000
     21 H          -1.2718   -0.9699   -1.2355 H         1     ****    0.0000
     22 H           1.6677    0.8794   -2.6748 H         1     ****    0.0000
     23 H           0.4510   -0.0441   -0.3156 H         1     ****    0.0000
     24 H           2.3086    1.5997   -0.3804 H         1     ****    0.0000
     25 H           1.1105    2.7324   -1.0954 H         1     ****    0.0000
     26 H          -0.2280    3.9300    0.4646 H         1     ****    0.0000
     27 H          -1.0685    4.2924    2.7155 H         1     ****    0.0000
     28 H          -0.6310    2.6473    4.4719 H         1     ****    0.0000
     29 H           0.6592    0.6336    3.9561 H         1     ****    0.0000
     30 H           1.5048    0.2690    1.7045 H         1     ****    0.0000
@<TRIPOS>BOND
     1     1     2     1
     2     1    18     1
     3     1    19     1
     4     1    20     1
     5     2     3     2
     6     2     6     1
     7     3     4     1
     8     3    21     1
     9     4     5     2
    10     4     7     1
    11     5     6     1
    12     7     8     2
    13     7     9     1
    14     9    10     1
    15     9    22     1
    16    10    11     1
    17    10    23     1
    18    11    12     1
    19    11    24     1
    20    11    25     1
    21    12    13     1
    22    12    17     2
    23    13    14     2
    24    13    26     1
    25    14    15     1
    26    14    27     1
    27    15    16     2
    28    15    28     1
    29    16    17     1
    30    16    29     1
    31    17    30     1
