@<TRIPOS>MOLECULE
****
44 47 1 0 0
SMALL
USER_CHARGES


@<TRIPOS>ATOM
      1 C          -5.1251   -1.5935   -2.5816 C.3       1     ****    0.0000
      2 N          -4.3045   -0.8298   -1.6448 N.3       1     ****    0.0000
      3 C          -2.8685   -0.9472   -1.9033 C.3       1     ****    0.0000
      4 C          -2.0734   -0.0953   -0.8997 C.3       1     ****    0.0000
      5 C          -0.5575   -0.1653   -1.1659 C.3       1     ****    0.0000
      6 C           0.3537    0.4279   -0.0714 C.3       1     ****    0.0000
      7 C          -0.0937    1.8646    0.3110 C.3       1     ****    0.0000
      8 C           0.8381    2.4922    1.3717 C.3       1     ****    0.0000
      9 C           1.9245    1.4753    1.7545 C.3       1     ****    0.0000
     10 C           1.2227    0.2029    2.1773 C.ar      1     ****    0.0000
     11 C           1.3769   -0.3698    3.3809 C.ar      1     ****    0.0000
     12 C           0.7387   -1.5173    3.6556 C.ar      1     ****    0.0000
     13 C          -0.0376   -2.0890    2.7221 C.ar      1     ****    0.0000
     14 C          -0.1885   -1.5126    1.5188 C.ar      1     ****    0.0000
     15 C           0.4280   -0.3513    1.2414 C.ar      1     ****    0.0000
     16 C           2.6229    1.0924    0.4680 C.ar      1     ****    0.0000
     17 C           3.9355    1.2638    0.2490 C.ar      1     ****    0.0000
     18 C           4.4663    0.8831   -0.9227 C.ar      1     ****    0.0000
     19 C           3.6829    0.3325   -1.8629 C.ar      1     ****    0.0000
     20 C           2.3695    0.1644   -1.6399 C.ar      1     ****    0.0000
     21 C           1.8264    0.5487   -0.4721 C.ar      1     ****    0.0000
     22 H          -6.2012   -1.4639   -2.3253 H         1     ****    0.0000
     23 H          -4.9739   -1.2308   -3.6235 H         1     ****    0.0000
     24 H          -4.8840   -2.6798   -2.5324 H         1     ****    0.0000
     25 H          -4.5779    0.1829   -1.7040 H         1     ****    0.0000
     26 H          -2.5553   -2.0149   -1.8185 H         1     ****    0.0000
     27 H          -2.6453   -0.5987   -2.9393 H         1     ****    0.0000
     28 H          -2.4255    0.9608   -0.9806 H         1     ****    0.0000
     29 H          -2.3155   -0.4340    0.1331 H         1     ****    0.0000
     30 H          -0.2535   -1.2202   -1.3599 H         1     ****    0.0000
     31 H          -0.3920    0.3975   -2.1162 H         1     ****    0.0000
     32 H          -0.1167    2.5035   -0.6036 H         1     ****    0.0000
     33 H          -1.1304    1.8449    0.7212 H         1     ****    0.0000
     34 H           0.2624    2.7839    2.2823 H         1     ****    0.0000
     35 H           1.3150    3.4213    0.9780 H         1     ****    0.0000
     36 H           2.6201    1.8700    2.5279 H         1     ****    0.0000
     37 H           2.0306    0.0934    4.1374 H         1     ****    0.0000
     38 H           0.8636   -1.9969    4.6407 H         1     ****    0.0000
     39 H          -0.5487   -3.0411    2.9439 H         1     ****    0.0000
     40 H          -0.8203   -2.0182    0.7735 H         1     ****    0.0000
     41 H           4.5753    1.7114    1.0264 H         1     ****    0.0000
     42 H           5.5445    1.0184   -1.1106 H         1     ****    0.0000
     43 H           4.1225    0.0153   -2.8238 H         1     ****    0.0000
     44 H           1.7599   -0.2945   -2.4327 H         1     ****    0.0000
@<TRIPOS>BOND
     1     1     2     1
     2     1    22     1
     3     1    23     1
     4     1    24     1
     5     2     3     1
     6     2    25     1
     7     3     4     1
     8     3    26     1
     9     3    27     1
    10     4     5     1
    11     4    28     1
    12     4    29     1
    13     5     6     1
    14     5    30     1
    15     5    31     1
    16     6     7     1
    17     6    15     1
    18     6    21     1
    19     7     8     1
    20     7    32     1
    21     7    33     1
    22     8     9     1
    23     8    34     1
    24     8    35     1
    25     9    10     1
    26     9    16     1
    27     9    36     1
    28    10    11     2
    29    10    15     1
    30    11    12     1
    31    11    37     1
    32    12    13     2
    33    12    38     1
    34    13    14     1
    35    13    39     1
    36    14    15     2
    37    14    40     1
    38    16    17     2
    39    16    21     1
    40    17    18     1
    41    17    41     1
    42    18    19     2
    43    18    42     1
    44    19    20     1
    45    19    43     1
    46    20    21     2
    47    20    44     1
