@<TRIPOS>MOLECULE
****
40 43 1 0 0
SMALL
USER_CHARGES


@<TRIPOS>ATOM
      1 C           1.0742    3.7244    0.4238 C.3       1     ****    0.0000
      2 N           0.3522    2.7818    1.2668 N.3       1     ****    0.0000
      3 C          -1.0676    2.7268    0.9256 C.3       1     ****    0.0000
      4 C          -1.4062    1.9813   -0.3860 C.3       1     ****    0.0000
      5 N          -0.8390    0.6039   -0.2143 N.3       1     ****    0.0000
      6 C           0.6417    0.6622   -0.0170 C.3       1     ****    0.0000
      7 C           0.9522    1.4482    1.2643 C.3       1     ****    0.0000
      8 C           1.4936   -0.5564   -0.3295 C.ar      1     ****    0.0000
      9 C           2.5845   -0.4419   -1.1144 C.ar      1     ****    0.0000
     10 C           3.3674   -1.4937   -1.3983 C.ar      1     ****    0.0000
     11 C           3.0734   -2.6973   -0.8890 C.ar      1     ****    0.0000
     12 C           2.0013   -2.8259   -0.0951 C.ar      1     ****    0.0000
     13 C           1.2251   -1.7651    0.1884 C.ar      1     ****    0.0000
     14 C           0.0262   -1.8989    1.0688 C.3       1     ****    0.0000
     15 C          -1.2021   -1.6800    0.2189 C.ar      1     ****    0.0000
     16 C          -2.0453   -2.7312    0.0947 C.ar      1     ****    0.0000
     17 C          -3.1691   -2.8452   -0.6620 C.ar      1     ****    0.0000
     18 C          -3.6249   -1.5664   -0.5973 C.ar      1     ****    0.0000
     19 C          -2.8877   -0.4414   -0.5218 C.ar      1     ****    0.0000
     20 C          -1.5667   -0.4523   -0.2282 C.ar      1     ****    0.0000
     21 H           2.1453    3.7841    0.7241 H         1     ****    0.0000
     22 H           0.6604    4.7519    0.5448 H         1     ****    0.0000
     23 H           1.0357    3.4770   -0.6582 H         1     ****    0.0000
     24 H          -1.6106    2.2138    1.7576 H         1     ****    0.0000
     25 H          -1.4910    3.7591    0.8914 H         1     ****    0.0000
     26 H          -2.4968    2.0754   -0.5461 H         1     ****    0.0000
     27 H          -0.9522    2.4798   -1.2718 H         1     ****    0.0000
     28 H           0.9465    1.3353   -0.8569 H         1     ****    0.0000
     29 H           0.5683    0.8866    2.1465 H         1     ****    0.0000
     30 H           2.0552    1.5195    1.4132 H         1     ****    0.0000
     31 H           2.8656    0.5344   -1.5442 H         1     ****    0.0000
     32 H           4.2517   -1.3701   -2.0459 H         1     ****    0.0000
     33 H           3.7086   -3.5693   -1.1166 H         1     ****    0.0000
     34 H           1.7638   -3.8177    0.3239 H         1     ****    0.0000
     35 H           0.0479   -1.1692    1.9059 H         1     ****    0.0000
     36 H           0.0261   -2.8859    1.5826 H         1     ****    0.0000
     37 H          -1.8606   -3.6226    0.7230 H         1     ****    0.0000
     38 H          -2.5217   -2.4584   -1.4843 H         1     ****    0.0000
     39 H          -4.7271   -1.4645   -0.6192 H         1     ****    0.0000
     40 H          -3.4773    0.4707   -0.6789 H         1     ****    0.0000
@<TRIPOS>BOND
     1     1     2     1
     2     1    21     1
     3     1    22     1
     4     1    23     1
     5     2     3     1
     6     2     7     1
     7     3     4     1
     8     3    24     1
     9     3    25     1
    10     4     5     1
    11     4    26     1
    12     4    27     1
    13     5     6     1
    14     5    20     1
    15     6     7     1
    16     6     8     1
    17     6    28     1
    18     7    29     1
    19     7    30     1
    20     8     9     2
    21     8    13     1
    22     9    10     1
    23     9    31     1
    24    10    11     2
    25    10    32     1
    26    11    12     1
    27    11    33     1
    28    12    13     2
    29    12    34     1
    30    13    14     1
    31    14    15     1
    32    14    35     1
    33    14    36     1
    34    15    16     2
    35    15    20     1
    36    16    17     1
    37    16    37     1
    38    17    18     2
    39    17    38     1
    40    18    19     1
    41    18    39     1
    42    19    20     2
    43    19    40     1
