@<TRIPOS>MOLECULE
****
39 42 1 0 0
SMALL
USER_CHARGES


@<TRIPOS>ATOM
      1 C           0.9709    2.4043    2.4841 C.3       1     ****    0.0000
      2 N          -0.4029    2.4463    2.0125 N.3       1     ****    0.0000
      3 C          -0.5341    3.0835    0.7134 C.3       1     ****    0.0000
      4 C           0.1705    2.3178   -0.4171 C.3       1     ****    0.0000
      5 N           0.2714    0.8348   -0.2336 N.3       1     ****    0.0000
      6 C          -0.3583    0.1674    0.9359 C.3       1     ****    0.0000
      7 C          -1.0249    1.1346    1.9403 C.3       1     ****    0.0000
      8 C          -1.2328   -1.0003    0.4931 C.ar      1     ****    0.0000
      9 C          -2.5801   -0.9886    0.4949 C.ar      1     ****    0.0000
     10 C          -3.2977   -2.0508    0.0981 C.ar      1     ****    0.0000
     11 C          -2.6746   -3.1579   -0.3255 C.ar      1     ****    0.0000
     12 C          -1.3353   -3.1795   -0.3542 C.ar      1     ****    0.0000
     13 C          -0.6200   -2.1146    0.0504 C.ar      1     ****    0.0000
     14 C           0.8828   -2.1244   -0.0296 C.3       1     ****    0.0000
     15 C           1.3216   -1.1173   -1.0776 C.ar      1     ****    0.0000
     16 C           0.9992    0.2071   -1.0913 C.ar      1     ****    0.0000
     17 N           1.4751    0.8991   -2.0538 N.ar      1     ****    0.0000
     18 C           2.2049    0.4327   -2.9718 C.ar      1     ****    0.0000
     19 C           2.5655   -0.8503   -3.0363 C.ar      1     ****    0.0000
     20 C           2.1018   -1.6270   -2.0535 C.ar      1     ****    0.0000
     21 H           1.0234    1.9299    3.4908 H         1     ****    0.0000
     22 H           1.3757    3.4367    2.5921 H         1     ****    0.0000
     23 H           1.6526    1.8456    1.8067 H         1     ****    0.0000
     24 H          -0.1708    4.1381    0.7598 H         1     ****    0.0000
     25 H          -1.6192    3.1767    0.4629 H         1     ****    0.0000
     26 H           1.1996    2.7543   -0.4673 H         1     ****    0.0000
     27 H          -0.3591    2.5536   -1.3725 H         1     ****    0.0000
     28 H           0.4937   -0.2141    1.5480 H         1     ****    0.0000
     29 H          -2.0884    1.3242    1.6793 H         1     ****    0.0000
     30 H          -1.0731    0.6682    2.9537 H         1     ****    0.0000
     31 H          -3.1570   -0.1092    0.8120 H         1     ****    0.0000
     32 H          -4.4003   -2.0138    0.1102 H         1     ****    0.0000
     33 H          -3.2563   -4.0321   -0.6619 H         1     ****    0.0000
     34 H          -0.8286   -4.0847   -0.7275 H         1     ****    0.0000
     35 H           1.2230   -3.1556   -0.2758 H         1     ****    0.0000
     36 H           1.3815   -1.9405    0.9457 H         1     ****    0.0000
     37 H           2.5459    1.1432   -3.7437 H         1     ****    0.0000
     38 H           3.2040   -1.2393   -3.8449 H         1     ****    0.0000
     39 H           2.3833   -2.6928   -2.0724 H         1     ****    0.0000
@<TRIPOS>BOND
     1     1     2     1
     2     1    21     1
     3     1    22     1
     4     1    23     1
     5     2     3     1
     6     2     7     1
     7     3     4     1
     8     3    24     1
     9     3    25     1
    10     4     5     1
    11     4    26     1
    12     4    27     1
    13     5     6     1
    14     5    16     1
    15     6     7     1
    16     6     8     1
    17     6    28     1
    18     7    29     1
    19     7    30     1
    20     8     9     2
    21     8    13     1
    22     9    10     1
    23     9    31     1
    24    10    11     2
    25    10    32     1
    26    11    12     1
    27    11    33     1
    28    12    13     2
    29    12    34     1
    30    13    14     1
    31    14    15     1
    32    14    35     1
    33    14    36     1
    34    15    16     2
    35    15    20     1
    36    16    17     1
    37    17    18     2
    38    18    19     1
    39    18    37     1
    40    19    20     2
    41    19    38     1
    42    20    39     1
