@<TRIPOS>MOLECULE
****
65 68 1 0 0
SMALL
USER_CHARGES


@<TRIPOS>ATOM
      1 C           3.3710   -2.8035   -1.6765 C.3       1     ****    0.0000
      2 C           3.6799   -1.4070   -2.2329 C.3       1     ****    0.0000
      3 C           2.8002   -0.3096   -1.6943 C.ar      1     ****    0.0000
      4 N           1.8887   -0.5706   -0.8517 N.ar      1     ****    0.0000
      5 N           1.2685    0.5948   -0.5505 N.ar      1     ****    0.0000
      6 C           0.1682    0.8649    0.3585 C.3       1     ****    0.0000
      7 C          -0.3654   -0.4220    1.0109 C.3       1     ****    0.0000
      8 C          -1.5456   -0.1362    1.9588 C.3       1     ****    0.0000
      9 N          -1.9591   -1.2779    2.7731 N.3       1     ****    0.0000
     10 C          -2.9874   -0.8664    3.7252 C.3       1     ****    0.0000
     11 C          -3.4298   -2.0208    4.6397 C.3       1     ****    0.0000
     12 N          -3.9191   -3.1144    3.7532 N.3       1     ****    0.0000
     13 C          -2.8546   -3.6001    2.8306 C.3       1     ****    0.0000
     14 C          -2.4107   -2.4062    1.9664 C.3       1     ****    0.0000
     15 C          -5.1240   -3.5583    3.7559 C.ar      1     ****    0.0000
     16 C          -6.0878   -3.0875    4.5822 C.ar      1     ****    0.0000
     17 C          -7.3531   -3.5418    4.5932 C.ar      1     ****    0.0000
     18 Cl         -8.5162   -2.8767    5.6872 Cl        1     ****    0.0000
     19 C          -7.7300   -4.5144    3.7544 C.ar      1     ****    0.0000
     20 C          -6.8125   -5.0086    2.9158 C.ar      1     ****    0.0000
     21 C          -5.5555   -4.5361    2.9259 C.ar      1     ****    0.0000
     22 C           1.8920    1.5696   -1.2862 C.ar      1     ****    0.0000
     23 O           1.6057    2.7400   -1.2720 O.2       1     ****    0.0000
     24 N           2.7831    0.9415   -1.9330 N.ar      1     ****    0.0000
     25 C           3.7403    1.5390   -2.8843 C.3       1     ****    0.0000
     26 C           3.7048    3.0448   -3.1588 C.3       1     ****    0.0000
     27 O           4.7088    3.3555   -4.0911 O.3       1     ****    0.0000
     28 C           4.8728    4.6618   -4.4869 C.ar      1     ****    0.0000
     29 C           5.8517    4.9481   -5.3687 C.ar      1     ****    0.0000
     30 C           6.0870    6.1928   -5.8107 C.ar      1     ****    0.0000
     31 C           5.3320    7.2092   -5.3715 C.ar      1     ****    0.0000
     32 C           4.3509    6.9587   -4.4933 C.ar      1     ****    0.0000
     33 C           4.1309    5.7060   -4.0626 C.ar      1     ****    0.0000
     34 H           4.0564   -3.5652   -2.1150 H         1     ****    0.0000
     35 H           3.4995   -2.8377   -0.5703 H         1     ****    0.0000
     36 H           2.3288   -3.1155   -1.9174 H         1     ****    0.0000
     37 H           3.5725   -1.4286   -3.3434 H         1     ****    0.0000
     38 H           4.7406   -1.1520   -1.9988 H         1     ****    0.0000
     39 H           0.5198    1.5684    1.1496 H         1     ****    0.0000
     40 H          -0.6571    1.3609   -0.2051 H         1     ****    0.0000
     41 H          -0.6823   -1.1125    0.1941 H         1     ****    0.0000
     42 H           0.4547   -0.9169    1.5846 H         1     ****    0.0000
     43 H          -1.2224    0.6910    2.6368 H         1     ****    0.0000
     44 H          -2.4045    0.2528    1.3615 H         1     ****    0.0000
     45 H          -2.5999   -0.0425    4.3727 H         1     ****    0.0000
     46 H          -3.8842   -0.4712    3.1897 H         1     ****    0.0000
     47 H          -2.5500   -2.3959    5.2145 H         1     ****    0.0000
     48 H          -4.1211   -1.6351    5.4128 H         1     ****    0.0000
     49 H          -3.0959   -4.4580    2.1746 H         1     ****    0.0000
     50 H          -1.9913   -3.9530    3.4436 H         1     ****    0.0000
     51 H          -3.2578   -2.1012    1.3064 H         1     ****    0.0000
     52 H          -1.5866   -2.7706    1.3091 H         1     ****    0.0000
     53 H          -5.9011   -2.2875    5.3094 H         1     ****    0.0000
     54 H          -8.7610   -4.9042    3.7415 H         1     ****    0.0000
     55 H          -7.1013   -5.8090    2.2123 H         1     ****    0.0000
     56 H          -4.9127   -5.0279    2.1838 H         1     ****    0.0000
     57 H           4.7719    1.2959   -2.5293 H         1     ****    0.0000
     58 H           3.6107    1.0244   -3.8680 H         1     ****    0.0000
     59 H           2.7167    3.3211   -3.5959 H         1     ****    0.0000
     60 H           3.9131    3.6011   -2.2149 H         1     ****    0.0000
     61 H           6.4862    4.1264   -5.7434 H         1     ****    0.0000
     62 H           6.8990    6.3808   -6.5330 H         1     ****    0.0000
     63 H           5.5157    8.2364   -5.7273 H         1     ****    0.0000
     64 H           3.7236    7.7881   -4.1248 H         1     ****    0.0000
     65 H           3.3103    5.5666   -3.3411 H         1     ****    0.0000
@<TRIPOS>BOND
     1     1     2     1
     2     1    34     1
     3     1    35     1
     4     1    36     1
     5     2     3     1
     6     2    37     1
     7     2    38     1
     8     3     4     2
     9     3    24     1
    10     4     5     1
    11     5     6     1
    12     5    22     1
    13     6     7     1
    14     6    39     1
    15     6    40     1
    16     7     8     1
    17     7    41     1
    18     7    42     1
    19     8     9     1
    20     8    43     1
    21     8    44     1
    22     9    10     1
    23     9    14     1
    24    10    11     1
    25    10    45     1
    26    10    46     1
    27    11    12     1
    28    11    47     1
    29    11    48     1
    30    12    13     1
    31    12    15     1
    32    13    14     1
    33    13    49     1
    34    13    50     1
    35    14    51     1
    36    14    52     1
    37    15    16     1
    38    15    21     2
    39    16    17     2
    40    16    53     1
    41    17    18     1
    42    17    19     1
    43    19    20     2
    44    19    54     1
    45    20    21     1
    46    20    55     1
    47    21    56     1
    48    22    23     2
    49    22    24     1
    50    24    25     1
    51    25    26     1
    52    25    57     1
    53    25    58     1
    54    26    27     1
    55    26    59     1
    56    26    60     1
    57    27    28     1
    58    28    29     1
    59    28    33     2
    60    29    30     2
    61    29    61     1
    62    30    31     1
    63    30    62     1
    64    31    32     2
    65    31    63     1
    66    32    33     1
    67    32    64     1
    68    33    65     1
