@<TRIPOS>MOLECULE
****
41 43 1 0 0
SMALL
USER_CHARGES


@<TRIPOS>ATOM
      1 C           5.4762   -0.7912    0.6098 C.3       1     ****    0.0000
      2 N           4.3187   -0.8257   -0.2807 N.3       1     ****    0.0000
      3 C           3.0514   -1.0334    0.4227 C.3       1     ****    0.0000
      4 C           1.8789   -1.0239   -0.5774 C.3       1     ****    0.0000
      5 C           0.5419   -1.1868    0.1319 C.2       1     ****    0.0000
      6 C          -0.5925   -0.4453    0.0041 C.2       1     ****    0.0000
      7 C          -1.6136   -0.5776    0.9078 C.ar      1     ****    0.0000
      8 C          -1.6837   -1.7075    1.6588 C.ar      1     ****    0.0000
      9 C          -2.6532   -2.0006    2.5380 C.ar      1     ****    0.0000
     10 C          -3.6616   -1.1452    2.7109 C.ar      1     ****    0.0000
     11 C          -3.6420   -0.0224    1.9873 C.ar      1     ****    0.0000
     12 C          -2.6583    0.2719    1.1102 C.ar      1     ****    0.0000
     13 C          -2.8229    1.6395    0.4809 C.3       1     ****    0.0000
     14 C          -1.4857    2.3159    0.2124 C.3       1     ****    0.0000
     15 C          -1.0022    1.6811   -1.0575 C.ar      1     ****    0.0000
     16 C          -0.9684    2.4286   -2.1772 C.ar      1     ****    0.0000
     17 C          -0.5407    1.9261   -3.3420 C.ar      1     ****    0.0000
     18 C          -0.1552    0.6460   -3.3803 C.ar      1     ****    0.0000
     19 C          -0.1907   -0.0883   -2.2586 C.ar      1     ****    0.0000
     20 C          -0.5868    0.3991   -1.0600 C.ar      1     ****    0.0000
     21 H           6.4024   -0.6360    0.0109 H         1     ****    0.0000
     22 H           5.3905    0.0500    1.3343 H         1     ****    0.0000
     23 H           5.5803   -1.7485    1.1696 H         1     ****    0.0000
     24 H           4.2702    0.0829   -0.8060 H         1     ****    0.0000
     25 H           3.0836   -2.0044    0.9721 H         1     ****    0.0000
     26 H           2.9019   -0.2153    1.1671 H         1     ****    0.0000
     27 H           1.9581   -0.0655   -1.1397 H         1     ****    0.0000
     28 H           2.0189   -1.8739   -1.2876 H         1     ****    0.0000
     29 H           0.6880   -1.9159    0.9409 H         1     ****    0.0000
     30 H          -0.9771   -2.5459    1.5767 H         1     ****    0.0000
     31 H          -2.6467   -2.9519    3.0979 H         1     ****    0.0000
     32 H          -4.4796   -1.3621    3.4171 H         1     ****    0.0000
     33 H          -4.4818    0.6761    2.1458 H         1     ****    0.0000
     34 H          -3.3688    2.3210    1.1786 H         1     ****    0.0000
     35 H          -3.4518    1.5641   -0.4368 H         1     ****    0.0000
     36 H          -0.7635    2.1806    1.0496 H         1     ****    0.0000
     37 H          -1.6243    3.4156    0.0907 H         1     ****    0.0000
     38 H          -1.3005    3.4800   -2.1573 H         1     ****    0.0000
     39 H          -0.5268    2.5451   -4.2541 H         1     ****    0.0000
     40 H           0.1663    0.1963   -4.3349 H         1     ****    0.0000
     41 H           0.0777   -1.1520   -2.3822 H         1     ****    0.0000
@<TRIPOS>BOND
     1     1     2     1
     2     1    21     1
     3     1    22     1
     4     1    23     1
     5     2     3     1
     6     2    24     1
     7     3     4     1
     8     3    25     1
     9     3    26     1
    10     4     5     1
    11     4    27     1
    12     4    28     1
    13     5     6     2
    14     5    29     1
    15     6     7     1
    16     6    20     1
    17     7     8     2
    18     7    12     1
    19     8     9     1
    20     8    30     1
    21     9    10     2
    22     9    31     1
    23    10    11     1
    24    10    32     1
    25    11    12     2
    26    11    33     1
    27    12    13     1
    28    13    14     1
    29    13    34     1
    30    13    35     1
    31    14    15     1
    32    14    36     1
    33    14    37     1
    34    15    16     2
    35    15    20     1
    36    16    17     1
    37    16    38     1
    38    17    18     2
    39    17    39     1
    40    18    19     1
    41    18    40     1
    42    19    20     2
    43    19    41     1
