@<TRIPOS>MOLECULE
****
44 47 1 0 0
SMALL
USER_CHARGES


@<TRIPOS>ATOM
      1 F           4.5451   -0.0559   -5.5412 F         1     ****    0.0000
      2 C           3.7391   -0.3240   -4.5269 C.ar      1     ****    0.0000
      3 C           2.8162   -1.2915   -4.6253 C.ar      1     ****    0.0000
      4 C           2.0015   -1.5636   -3.5936 C.ar      1     ****    0.0000
      5 C           2.0706   -0.8778   -2.4373 C.ar      1     ****    0.0000
      6 C           3.0183    0.0771   -2.3530 C.ar      1     ****    0.0000
      7 C           3.8384    0.3581   -3.3771 C.ar      1     ****    0.0000
      8 C           1.1746   -1.1458   -1.2293 C.3       1     ****    0.0000
      9 C           0.2864   -2.4055   -1.2857 C.3       1     ****    0.0000
     10 C          -0.9988   -2.2318   -2.1115 C.3       1     ****    0.0000
     11 N          -1.7254   -1.0197   -1.7451 N.3       1     ****    0.0000
     12 C          -0.8930    0.1768   -1.8317 C.3       1     ****    0.0000
     13 C           0.3075    0.0883   -0.8739 C.3       1     ****    0.0000
     14 C          -0.1385    0.0748    0.5978 C.3       1     ****    0.0000
     15 O          -0.7701    1.2916    0.9030 O.3       1     ****    0.0000
     16 C          -1.2314    1.5065    2.1806 C.ar      1     ****    0.0000
     17 C          -1.1476    0.6178    3.1952 C.ar      1     ****    0.0000
     18 C          -1.6293    0.9322    4.4049 C.ar      1     ****    0.0000
     19 C          -2.1978    2.1181    4.6406 C.ar      1     ****    0.0000
     20 O          -2.5741    2.2147    5.8052 O.3       1     ****    0.0000
     21 C          -2.2455    0.9883    6.4599 C.3       1     ****    0.0000
     22 O          -1.6262    0.2345    5.4159 O.3       1     ****    0.0000
     23 C          -2.2985    3.0249    3.6635 C.ar      1     ****    0.0000
     24 C          -1.8113    2.6964    2.4551 C.ar      1     ****    0.0000
     25 H           2.7328   -1.8702   -5.5607 H         1     ****    0.0000
     26 H           1.2782   -2.3788   -3.7324 H         1     ****    0.0000
     27 H           3.1413    0.6509   -1.4193 H         1     ****    0.0000
     28 H           4.6005    1.1484   -3.2734 H         1     ****    0.0000
     29 H           1.9039   -1.3142   -0.3948 H         1     ****    0.0000
     30 H           0.8689   -3.2906   -1.6314 H         1     ****    0.0000
     31 H          -0.0281   -2.6616   -0.2448 H         1     ****    0.0000
     32 H          -1.6676   -3.1124   -1.9619 H         1     ****    0.0000
     33 H          -0.7840   -2.1938   -3.2023 H         1     ****    0.0000
     34 H          -2.5505   -0.9099   -2.3857 H         1     ****    0.0000
     35 H          -0.5401    0.3089   -2.8813 H         1     ****    0.0000
     36 H          -1.5190    1.0686   -1.5970 H         1     ****    0.0000
     37 H           0.9137    1.0201   -0.9986 H         1     ****    0.0000
     38 H          -0.8500   -0.7603    0.7829 H         1     ****    0.0000
     39 H           0.7583   -0.0330    1.2518 H         1     ****    0.0000
     40 H          -0.6918   -0.3760    3.0714 H         1     ****    0.0000
     41 H          -1.5321    1.1647    7.2981 H         1     ****    0.0000
     42 H          -3.1650    0.4759    6.8268 H         1     ****    0.0000
     43 H          -2.7647    4.0058    3.8476 H         1     ****    0.0000
     44 H          -1.8909    3.4416    1.6444 H         1     ****    0.0000
@<TRIPOS>BOND
     1     1     2     1
     2     2     3     1
     3     2     7     2
     4     3     4     2
     5     3    25     1
     6     4     5     1
     7     4    26     1
     8     5     6     2
     9     5     8     1
    10     6     7     1
    11     6    27     1
    12     7    28     1
    13     8     9     1
    14     8    13     1
    15     8    29     1
    16     9    10     1
    17     9    30     1
    18     9    31     1
    19    10    11     1
    20    10    32     1
    21    10    33     1
    22    11    12     1
    23    11    34     1
    24    12    13     1
    25    12    35     1
    26    12    36     1
    27    13    14     1
    28    13    37     1
    29    14    15     1
    30    14    38     1
    31    14    39     1
    32    15    16     1
    33    16    17     2
    34    16    24     1
    35    17    18     1
    36    17    40     1
    37    18    19     2
    38    18    22     1
    39    19    20     1
    40    19    23     1
    41    20    21     1
    42    21    22     1
    43    21    41     1
    44    21    42     1
    45    23    24     2
    46    23    43     1
    47    24    44     1
