@<TRIPOS>MOLECULE
****
41 43 1 0 0
SMALL
USER_CHARGES


@<TRIPOS>ATOM
      1 C          -4.4106    2.9080    1.5634 C.3       1     ****    0.0000
      2 N          -3.7151    1.6554    1.2781 N.3       1     ****    0.0000
      3 C          -2.4713    1.8406    0.5289 C.3       1     ****    0.0000
      4 C          -1.7825    0.4854    0.2992 C.3       1     ****    0.0000
      5 C          -0.4587    0.6356   -0.4700 C.3       1     ****    0.0000
      6 C           0.2315   -0.7090   -0.8046 C.3       1     ****    0.0000
      7 C           0.4707   -1.5059    0.4586 C.ar      1     ****    0.0000
      8 C          -0.4123   -2.4808    0.7594 C.ar      1     ****    0.0000
      9 C          -0.3807   -3.1406    1.9246 C.ar      1     ****    0.0000
     10 C           0.5368   -2.7980    2.8355 C.ar      1     ****    0.0000
     11 C           1.4161   -1.8283    2.5468 C.ar      1     ****    0.0000
     12 C           1.4248   -1.1882    1.3565 C.ar      1     ****    0.0000
     13 C           2.4049   -0.2846    1.1644 C.2       1     ****    0.0000
     14 C           2.8970    0.2701    0.0434 C.2       1     ****    0.0000
     15 C           2.5678    0.1108   -1.2530 C.ar      1     ****    0.0000
     16 C           3.4788    0.5191   -2.1642 C.ar      1     ****    0.0000
     17 C           3.2963    0.3644   -3.4832 C.ar      1     ****    0.0000
     18 C           2.1645   -0.1947   -3.9252 C.ar      1     ****    0.0000
     19 C           1.2339   -0.5616   -3.0343 C.ar      1     ****    0.0000
     20 C           1.4146   -0.4223   -1.7046 C.ar      1     ****    0.0000
     21 H          -5.3465    2.6939    2.1281 H         1     ****    0.0000
     22 H          -3.7771    3.5765    2.1892 H         1     ****    0.0000
     23 H          -4.6853    3.4374    0.6227 H         1     ****    0.0000
     24 H          -3.4948    1.1765    2.1869 H         1     ****    0.0000
     25 H          -2.6877    2.3238   -0.4531 H         1     ****    0.0000
     26 H          -1.7859    2.5080    1.1027 H         1     ****    0.0000
     27 H          -1.5955    0.0104    1.2912 H         1     ****    0.0000
     28 H          -2.4713   -0.1836   -0.2698 H         1     ****    0.0000
     29 H          -0.6682    1.1816   -1.4218 H         1     ****    0.0000
     30 H           0.2291    1.2823    0.1239 H         1     ****    0.0000
     31 H          -0.5124   -1.2783   -1.4153 H         1     ****    0.0000
     32 H          -1.2222   -2.7414    0.0572 H         1     ****    0.0000
     33 H          -1.1207   -3.9273    2.1470 H         1     ****    0.0000
     34 H           0.5677   -3.3128    3.8105 H         1     ****    0.0000
     35 H           2.1613   -1.6014    3.3301 H         1     ****    0.0000
     36 H           3.0262   -0.0479    2.0523 H         1     ****    0.0000
     37 H           3.8226    0.8493    0.2393 H         1     ****    0.0000
     38 H           4.4368    0.9760   -1.8581 H         1     ****    0.0000
     39 H           4.0672    0.6941   -4.1998 H         1     ****    0.0000
     40 H           1.9882   -0.3161   -5.0069 H         1     ****    0.0000
     41 H           0.2853   -0.9586   -3.4335 H         1     ****    0.0000
@<TRIPOS>BOND
     1     1     2     1
     2     1    21     1
     3     1    22     1
     4     1    23     1
     5     2     3     1
     6     2    24     1
     7     3     4     1
     8     3    25     1
     9     3    26     1
    10     4     5     1
    11     4    27     1
    12     4    28     1
    13     5     6     1
    14     5    29     1
    15     5    30     1
    16     6     7     1
    17     6    20     1
    18     6    31     1
    19     7     8     1
    20     7    12     2
    21     8     9     2
    22     8    32     1
    23     9    10     1
    24     9    33     1
    25    10    11     2
    26    10    34     1
    27    11    12     1
    28    11    35     1
    29    12    13     1
    30    13    14     2
    31    13    36     1
    32    14    15     1
    33    14    37     1
    34    15    16     1
    35    15    20     2
    36    16    17     2
    37    16    38     1
    38    17    18     1
    39    17    39     1
    40    18    19     2
    41    18    40     1
    42    19    20     1
    43    19    41     1
