@<TRIPOS>MOLECULE
****
46 48 1 0 0
SMALL
USER_CHARGES


@<TRIPOS>ATOM
      1 C           2.0060    0.0211   -0.9908 C.3       1     ****    0.0000
      2 C           1.9246   -0.9131   -2.2017 C.3       1     ****    0.0000
      3 N           3.1967   -0.9358   -2.9189 N.3       1     ****    0.0000
      4 C           3.6194    0.4132   -3.2814 C.3       1     ****    0.0000
      5 C           3.6509    1.2980   -2.0404 C.3       1     ****    0.0000
      6 O           2.3963    1.3025   -1.4079 O.3       1     ****    0.0000
      7 C           0.6625    0.1374   -0.2617 C.3       1     ****    0.0000
      8 O           0.8275    0.9809    0.8602 O.3       1     ****    0.0000
      9 C          -0.1353    0.9242    1.8425 C.ar      1     ****    0.0000
     10 C           0.2547    0.6098    3.0940 C.ar      1     ****    0.0000
     11 C          -0.6025    0.5327    4.1195 C.ar      1     ****    0.0000
     12 C          -1.8957    0.7908    3.8964 C.ar      1     ****    0.0000
     13 C          -2.2936    1.1303    2.6622 C.ar      1     ****    0.0000
     14 C          -1.4411    1.2186    1.6194 C.ar      1     ****    0.0000
     15 O          -1.8298    1.5691    0.3486 O.3       1     ****    0.0000
     16 C          -3.1862    1.7805    0.0613 C.3       1     ****    0.0000
     17 C          -3.3189    2.0803   -1.4300 C.3       1     ****    0.0000
     18 C           0.1118   -1.2237    0.1360 C.ar      1     ****    0.0000
     19 C          -1.0491   -1.6748   -0.3741 C.ar      1     ****    0.0000
     20 C          -1.5424   -2.8718   -0.0211 C.ar      1     ****    0.0000
     21 C          -0.8761   -3.6413    0.8523 C.ar      1     ****    0.0000
     22 C           0.2837   -3.2068    1.3670 C.ar      1     ****    0.0000
     23 C           0.7701   -2.0087    1.0085 C.ar      1     ****    0.0000
     24 H           2.7745   -0.3649   -0.2786 H         1     ****    0.0000
     25 H           1.6867   -1.9542   -1.8819 H         1     ****    0.0000
     26 H           1.1105   -0.5813   -2.8885 H         1     ****    0.0000
     27 H           3.9290   -1.3709   -2.3037 H         1     ****    0.0000
     28 H           4.6313    0.3673   -3.7481 H         1     ****    0.0000
     29 H           2.9195    0.8391   -4.0392 H         1     ****    0.0000
     30 H           3.8877    2.3504   -2.3219 H         1     ****    0.0000
     31 H           4.4288    0.9583   -1.3187 H         1     ****    0.0000
     32 H          -0.0284    0.6409   -0.9772 H         1     ****    0.0000
     33 H           1.3204    0.3972    3.2874 H         1     ****    0.0000
     34 H          -0.2507    0.2621    5.1287 H         1     ****    0.0000
     35 H          -2.6218    0.7331    4.7246 H         1     ****    0.0000
     36 H          -3.3675    1.3427    2.5419 H         1     ****    0.0000
     37 H          -3.7665    0.8581    0.2995 H         1     ****    0.0000
     38 H          -3.5619    2.6506    0.6488 H         1     ****    0.0000
     39 H          -4.3836    2.2545   -1.7091 H         1     ****    0.0000
     40 H          -2.7398    2.9903   -1.7099 H         1     ****    0.0000
     41 H          -2.9400    1.2317   -2.0451 H         1     ****    0.0000
     42 H          -1.6146   -1.0596   -1.0933 H         1     ****    0.0000
     43 H          -2.4965   -3.2233   -0.4484 H         1     ****    0.0000
     44 H          -1.2794   -4.6249    1.1454 H         1     ****    0.0000
     45 H           0.8362   -3.8340    2.0865 H         1     ****    0.0000
     46 H           1.7228   -1.6684    1.4458 H         1     ****    0.0000
@<TRIPOS>BOND
     1     1     2     1
     2     1     6     1
     3     1     7     1
     4     1    24     1
     5     2     3     1
     6     2    25     1
     7     2    26     1
     8     3     4     1
     9     3    27     1
    10     4     5     1
    11     4    28     1
    12     4    29     1
    13     5     6     1
    14     5    30     1
    15     5    31     1
    16     7     8     1
    17     7    18     1
    18     7    32     1
    19     8     9     1
    20     9    10     1
    21     9    14     2
    22    10    11     2
    23    10    33     1
    24    11    12     1
    25    11    34     1
    26    12    13     2
    27    12    35     1
    28    13    14     1
    29    13    36     1
    30    14    15     1
    31    15    16     1
    32    16    17     1
    33    16    37     1
    34    16    38     1
    35    17    39     1
    36    17    40     1
    37    17    41     1
    38    18    19     1
    39    18    23     2
    40    19    20     2
    41    19    42     1
    42    20    21     1
    43    20    43     1
    44    21    22     2
    45    21    44     1
    46    22    23     1
    47    22    45     1
    48    23    46     1
