@<TRIPOS>MOLECULE
****
37 39 1 0 0
SMALL
USER_CHARGES


@<TRIPOS>ATOM
      1 C          -3.2193    0.1468    2.3159 C.3       1     ****    0.0000
      2 N          -2.3136   -0.5964    1.4446 N.3       1     ****    0.0000
      3 C          -2.3795   -0.2622    0.0188 C.3       1     ****    0.0000
      4 C          -2.1478    1.2256   -0.2894 C.3       1     ****    0.0000
      5 C          -0.7114    1.6045    0.0751 C.3       1     ****    0.0000
      6 C           0.2695    0.8087   -0.7994 C.3       1     ****    0.0000
      7 C           1.6622    0.9011   -0.1998 C.ar      1     ****    0.0000
      8 C           2.6005    1.7044   -0.7317 C.ar      1     ****    0.0000
      9 C           3.8320    1.7904   -0.2000 C.ar      1     ****    0.0000
     10 Cl          4.9720    2.8509   -0.9598 Cl        1     ****    0.0000
     11 C           4.1400    1.0631    0.8916 C.ar      1     ****    0.0000
     12 Cl          5.7014    1.1158    1.6392 Cl        1     ****    0.0000
     13 C           3.2068    0.2634    1.4338 C.ar      1     ****    0.0000
     14 C           1.9815    0.1869    0.8935 C.ar      1     ****    0.0000
     15 C          -0.1411   -0.6316   -1.0524 C.ar      1     ****    0.0000
     16 C           0.7178   -1.4453   -1.6960 C.ar      1     ****    0.0000
     17 C           0.4128   -2.7242   -1.9585 C.ar      1     ****    0.0000
     18 C          -0.7778   -3.2083   -1.5810 C.ar      1     ****    0.0000
     19 C          -1.6466   -2.4019   -0.9550 C.ar      1     ****    0.0000
     20 C          -1.3484   -1.1157   -0.6928 C.ar      1     ****    0.0000
     21 H          -3.1952   -0.2977    3.3369 H         1     ****    0.0000
     22 H          -2.9028    1.2084    2.4155 H         1     ****    0.0000
     23 H          -4.2675    0.0997    1.9429 H         1     ****    0.0000
     24 H          -1.3261   -0.4558    1.7728 H         1     ****    0.0000
     25 H          -3.3994   -0.5273   -0.3561 H         1     ****    0.0000
     26 H          -2.8779    1.8741    0.2459 H         1     ****    0.0000
     27 H          -2.3130    1.4149   -1.3773 H         1     ****    0.0000
     28 H          -0.5424    2.6995   -0.0583 H         1     ****    0.0000
     29 H          -0.5459    1.3906    1.1560 H         1     ****    0.0000
     30 H           0.2616    1.2800   -1.8146 H         1     ****    0.0000
     31 H           2.3454    2.3016   -1.6230 H         1     ****    0.0000
     32 H           3.4311   -0.3404    2.3296 H         1     ****    0.0000
     33 H           1.2303   -0.4741    1.3574 H         1     ****    0.0000
     34 H           1.6995   -1.0630   -2.0222 H         1     ****    0.0000
     35 H           1.1344   -3.3730   -2.4825 H         1     ****    0.0000
     36 H          -1.0415   -4.2586   -1.7888 H         1     ****    0.0000
     37 H          -2.6249   -2.8115   -0.6519 H         1     ****    0.0000
@<TRIPOS>BOND
     1     1     2     1
     2     1    21     1
     3     1    22     1
     4     1    23     1
     5     2     3     1
     6     2    24     1
     7     3     4     1
     8     3    20     1
     9     3    25     1
    10     4     5     1
    11     4    26     1
    12     4    27     1
    13     5     6     1
    14     5    28     1
    15     5    29     1
    16     6     7     1
    17     6    15     1
    18     6    30     1
    19     7     8     1
    20     7    14     2
    21     8     9     2
    22     8    31     1
    23     9    10     1
    24     9    11     1
    25    11    12     1
    26    11    13     2
    27    13    14     1
    28    13    32     1
    29    14    33     1
    30    15    16     1
    31    15    20     2
    32    16    17     2
    33    16    34     1
    34    17    18     1
    35    17    35     1
    36    18    19     2
    37    18    36     1
    38    19    20     1
    39    19    37     1
