@<TRIPOS>MOLECULE
****
21 22 1 0 0
SMALL
USER_CHARGES


@<TRIPOS>ATOM
      1 N          -2.0689    1.0165    2.3779 N.3       1     ****    0.0000
      2 C          -0.9655    1.0830    1.4522 C.3       1     ****    0.0000
      3 C           0.3195    0.5763    2.0511 C.3       1     ****    0.0000
      4 C          -0.4599   -0.2858    1.0823 C.3       1     ****    0.0000
      5 C           0.1509   -0.3431   -0.2831 C.ar      1     ****    0.0000
      6 C           0.1012   -1.5165   -0.9438 C.ar      1     ****    0.0000
      7 C           0.6211   -1.6605   -2.1726 C.ar      1     ****    0.0000
      8 C           1.2097   -0.6187   -2.7766 C.ar      1     ****    0.0000
      9 C           1.2697    0.5591   -2.1392 C.ar      1     ****    0.0000
     10 C           0.7460    0.6917   -0.9098 C.ar      1     ****    0.0000
     11 H          -2.9465    0.9114    1.8689 H         1     ****    0.0000
     12 H          -2.0056    0.1863    2.9669 H         1     ****    0.0000
     13 H          -1.0832    1.9425    0.7992 H         1     ****    0.0000
     14 H           1.2487    1.0457    1.7390 H         1     ****    0.0000
     15 H           0.3143    0.2669    3.0953 H         1     ****    0.0000
     16 H          -0.9656   -1.1828    1.4521 H         1     ****    0.0000
     17 H          -0.3759   -2.3949   -0.4768 H         1     ****    0.0000
     18 H           0.5650   -2.6346   -2.6872 H         1     ****    0.0000
     19 H           1.6390   -0.7293   -3.7862 H         1     ****    0.0000
     20 H           1.7520    1.4213   -2.6304 H         1     ****    0.0000
     21 H           0.8269    1.6846   -0.4406 H         1     ****    0.0000
@<TRIPOS>BOND
     1     1     2     1
     2     1    11     1
     3     1    12     1
     4     2     3     1
     5     2     4     1
     6     2    13     1
     7     3     4     1
     8     3    14     1
     9     3    15     1
    10     4     5     1
    11     4    16     1
    12     5     6     1
    13     5    10     2
    14     6     7     2
    15     6    17     1
    16     7     8     1
    17     7    18     1
    18     8     9     2
    19     8    19     1
    20     9    10     1
    21     9    20     1
    22    10    21     1
