@<TRIPOS>MOLECULE
****
48 51 1 0 0
SMALL
USER_CHARGES


@<TRIPOS>ATOM
      1 Cl          5.0305    2.9121    4.7970 Cl        1     ****    0.0000
      2 C           3.7645    3.7065    3.9262 C.ar      1     ****    0.0000
      3 C           3.3075    4.8834    4.3708 C.ar      1     ****    0.0000
      4 C           2.3255    5.4747    3.6815 C.ar      1     ****    0.0000
      5 C           1.8233    4.8960    2.5786 C.ar      1     ****    0.0000
      6 C           2.2529    3.7109    2.0863 C.ar      1     ****    0.0000
      7 C           3.2437    3.1497    2.8188 C.ar      1     ****    0.0000
      8 N           1.7619    3.1683    1.0311 N.3       1     ****    0.0000
      9 C           0.6530    3.7599    0.2301 C.3       1     ****    0.0000
     10 C          -0.5202    2.7670    0.2817 C.3       1     ****    0.0000
     11 N          -0.1498    1.4463   -0.2197 N.3       1     ****    0.0000
     12 C          -1.3090    0.5559   -0.1907 C.3       1     ****    0.0000
     13 C          -1.0684   -0.8249   -0.8301 C.3       1     ****    0.0000
     14 C          -2.3759   -1.6211   -0.9806 C.3       1     ****    0.0000
     15 N          -2.1486   -2.9291   -1.5692 N.ar      1     ****    0.0000
     16 N          -1.0125   -3.5077   -2.0214 N.ar      1     ****    0.0000
     17 C          -1.3489   -4.6521   -2.4479 C.ar      1     ****    0.0000
     18 C          -0.5303   -5.5677   -2.9860 C.ar      1     ****    0.0000
     19 C          -1.0675   -6.7319   -3.3845 C.ar      1     ****    0.0000
     20 C          -2.3874   -6.9276   -3.2287 C.ar      1     ****    0.0000
     21 C          -3.1394   -5.9593   -2.6802 C.ar      1     ****    0.0000
     22 N          -2.6017   -4.8664   -2.3123 N.ar      1     ****    0.0000
     23 C          -3.1464   -3.8457   -1.7796 C.ar      1     ****    0.0000
     24 O          -4.3094   -3.6805   -1.5006 O.2       1     ****    0.0000
     25 C           0.9888    0.9068    0.5152 C.3       1     ****    0.0000
     26 C           2.2021    1.8533    0.4854 C.3       1     ****    0.0000
     27 H           3.7157    5.3613    5.2765 H         1     ****    0.0000
     28 H           1.9301    6.4443    4.0312 H         1     ****    0.0000
     29 H           1.0216    5.4883    2.1180 H         1     ****    0.0000
     30 H           3.6956    2.1847    2.5573 H         1     ****    0.0000
     31 H           0.2937    4.7672    0.5136 H         1     ****    0.0000
     32 H           0.9975    3.8720   -0.8254 H         1     ****    0.0000
     33 H          -0.8857    2.6998    1.3348 H         1     ****    0.0000
     34 H          -1.3547    3.1873   -0.3310 H         1     ****    0.0000
     35 H          -2.1439    1.0338   -0.7588 H         1     ****    0.0000
     36 H          -1.6702    0.4137    0.8558 H         1     ****    0.0000
     37 H          -0.3721   -1.4281   -0.2010 H         1     ****    0.0000
     38 H          -0.5984   -0.6877   -1.8335 H         1     ****    0.0000
     39 H          -3.0872   -1.0548   -1.6269 H         1     ****    0.0000
     40 H          -2.8462   -1.7495    0.0230 H         1     ****    0.0000
     41 H           0.5482   -5.3719   -3.0979 H         1     ****    0.0000
     42 H          -0.4343   -7.5150   -3.8328 H         1     ****    0.0000
     43 H          -2.8510   -7.8753   -3.5483 H         1     ****    0.0000
     44 H          -4.2239   -6.0825   -2.5363 H         1     ****    0.0000
     45 H           1.3202   -0.0594    0.0673 H         1     ****    0.0000
     46 H           0.7102    0.7071    1.5777 H         1     ****    0.0000
     47 H           2.5269    2.0027   -0.5719 H         1     ****    0.0000
     48 H           3.0642    1.3575    0.9705 H         1     ****    0.0000
@<TRIPOS>BOND
     1     1     2     1
     2     2     3     1
     3     2     7     2
     4     3     4     2
     5     3    27     1
     6     4     5     1
     7     4    28     1
     8     5     6     2
     9     5    29     1
    10     6     7     1
    11     6     8     1
    12     7    30     1
    13     8     9     1
    14     8    26     1
    15     9    10     1
    16     9    31     1
    17     9    32     1
    18    10    11     1
    19    10    33     1
    20    10    34     1
    21    11    12     1
    22    11    25     1
    23    12    13     1
    24    12    35     1
    25    12    36     1
    26    13    14     1
    27    13    37     1
    28    13    38     1
    29    14    15     1
    30    14    39     1
    31    14    40     1
    32    15    16     1
    33    15    23     1
    34    16    17     2
    35    17    18     1
    36    17    22     1
    37    18    19     2
    38    18    41     1
    39    19    20     1
    40    19    42     1
    41    20    21     2
    42    20    43     1
    43    21    22     1
    44    21    44     1
    45    22    23     1
    46    23    24     2
    47    25    26     1
    48    25    45     1
    49    25    46     1
    50    26    47     1
    51    26    48     1
