@<TRIPOS>MOLECULE
****
48 50 1 0 0
SMALL
USER_CHARGES


@<TRIPOS>ATOM
      1 C           2.3708    0.4224    0.5894 C.3       1     ****    0.0000
      2 C           1.2823   -0.6201    0.8939 C.3       1     ****    0.0000
      3 C           1.9115   -1.9615    1.3506 C.3       1     ****    0.0000
      4 N           3.0457   -2.4666    0.5791 N.3       1     ****    0.0000
      5 C           3.6142   -3.6392    1.2342 C.3       1     ****    0.0000
      6 C           2.7095   -2.7907   -0.7980 C.3       1     ****    0.0000
      7 C           0.1656   -0.7699   -0.1711 C.3       1     ****    0.0000
      8 N          -0.8249    0.3971   -0.2604 N.3       1     ****    0.0000
      9 C          -1.8540    0.1977    0.5091 C.ar      1     ****    0.0000
     10 C          -1.8899   -0.7559    1.4801 C.ar      1     ****    0.0000
     11 C          -2.9137   -1.0160    2.3075 C.ar      1     ****    0.0000
     12 C          -4.0376   -0.3063    2.2096 C.ar      1     ****    0.0000
     13 C          -4.0716    0.6353    1.2640 C.ar      1     ****    0.0000
     14 C          -3.0285    0.8803    0.4437 C.ar      1     ****    0.0000
     15 C          -3.2986    1.9404   -0.5884 C.3       1     ****    0.0000
     16 C          -2.2161    2.9841   -0.4039 C.3       1     ****    0.0000
     17 C          -1.0442    2.5368   -1.2360 C.ar      1     ****    0.0000
     18 C          -0.6192    3.4719   -2.1117 C.ar      1     ****    0.0000
     19 C           0.4387    3.2905   -2.9046 C.ar      1     ****    0.0000
     20 C           1.0846    2.1320   -2.7778 C.ar      1     ****    0.0000
     21 C           0.6429    1.2173   -1.9008 C.ar      1     ****    0.0000
     22 C          -0.4485    1.3205   -1.0947 C.ar      1     ****    0.0000
     23 H           1.9412    1.4403    0.4537 H         1     ****    0.0000
     24 H           3.0960    0.4956    1.4321 H         1     ****    0.0000
     25 H           2.9586    0.1669   -0.3186 H         1     ****    0.0000
     26 H           0.7679   -0.2065    1.8018 H         1     ****    0.0000
     27 H           2.2670   -1.7894    2.3975 H         1     ****    0.0000
     28 H           1.1177   -2.7403    1.4345 H         1     ****    0.0000
     29 H           4.5277   -3.9914    0.7024 H         1     ****    0.0000
     30 H           3.9369   -3.4035    2.2742 H         1     ****    0.0000
     31 H           2.8882   -4.4835    1.2755 H         1     ****    0.0000
     32 H           3.5677   -3.2737   -1.3184 H         1     ****    0.0000
     33 H           2.5033   -1.8745   -1.3902 H         1     ****    0.0000
     34 H           1.8354   -3.4782   -0.8622 H         1     ****    0.0000
     35 H           0.5431   -1.1134   -1.1485 H         1     ****    0.0000
     36 H          -0.3644   -1.7408   -0.0600 H         1     ****    0.0000
     37 H          -1.0493   -1.4140    1.7420 H         1     ****    0.0000
     38 H          -2.8393   -1.8023    3.0791 H         1     ****    0.0000
     39 H          -4.8970   -0.4946    2.8733 H         1     ****    0.0000
     40 H          -5.0120    1.2055    1.1761 H         1     ****    0.0000
     41 H          -4.2918    2.4291   -0.4527 H         1     ****    0.0000
     42 H          -3.3171    1.5038   -1.6133 H         1     ****    0.0000
     43 H          -1.9153    3.1224    0.6602 H         1     ****    0.0000
     44 H          -2.6233    3.9704   -0.7283 H         1     ****    0.0000
     45 H          -1.1285    4.4467   -2.1986 H         1     ****    0.0000
     46 H           0.7779    4.0658   -3.6104 H         1     ****    0.0000
     47 H           1.9805    1.9467   -3.3964 H         1     ****    0.0000
     48 H           1.3160    0.3536   -1.9475 H         1     ****    0.0000
@<TRIPOS>BOND
     1     1     2     1
     2     1    23     1
     3     1    24     1
     4     1    25     1
     5     2     3     1
     6     2     7     1
     7     2    26     1
     8     3     4     1
     9     3    27     1
    10     3    28     1
    11     4     5     1
    12     4     6     1
    13     5    29     1
    14     5    30     1
    15     5    31     1
    16     6    32     1
    17     6    33     1
    18     6    34     1
    19     7     8     1
    20     7    35     1
    21     7    36     1
    22     8     9     1
    23     8    22     1
    24     9    10     2
    25     9    14     1
    26    10    11     1
    27    10    37     1
    28    11    12     2
    29    11    38     1
    30    12    13     1
    31    12    39     1
    32    13    14     2
    33    13    40     1
    34    14    15     1
    35    15    16     1
    36    15    41     1
    37    15    42     1
    38    16    17     1
    39    16    43     1
    40    16    44     1
    41    17    18     2
    42    17    22     1
    43    18    19     1
    44    18    45     1
    45    19    20     2
    46    19    46     1
    47    20    21     1
    48    20    47     1
    49    21    22     2
    50    21    48     1
