@<TRIPOS>MOLECULE
****
47 48 1 0 0
SMALL
USER_CHARGES


@<TRIPOS>ATOM
      1 C           3.5962    3.8702    2.4622 C.3       1     ****    0.0000
      2 O           2.1894    3.7938    2.4707 O.3       1     ****    0.0000
      3 C           1.5763    2.8234    1.7149 C.ar      1     ****    0.0000
      4 C           0.2320    2.7449    1.7261 C.ar      1     ****    0.0000
      5 C          -0.4449    1.8283    1.0187 C.ar      1     ****    0.0000
      6 C           0.1962    0.9282    0.2533 C.ar      1     ****    0.0000
      7 C           1.5383    0.9957    0.2315 C.ar      1     ****    0.0000
      8 C           2.2074    1.9168    0.9428 C.ar      1     ****    0.0000
      9 C          -0.5756   -0.1120   -0.5498 C.3       1     ****    0.0000
     10 C          -0.1230   -0.1162   -2.0302 C.3       1     ****    0.0000
     11 N           0.0272    1.2138   -2.6185 N.3       1     ****    0.0000
     12 C           0.6100    1.1187   -3.9505 C.3       1     ****    0.0000
     13 C          -1.2319    1.9428   -2.6765 C.3       1     ****    0.0000
     14 C          -0.5461   -1.5012    0.1360 C.3       1     ****    0.0000
     15 O           0.7782   -1.9666    0.1467 O.3       1     ****    0.0000
     16 C          -1.0247   -1.4026    1.5937 C.3       1     ****    0.0000
     17 C          -1.1134   -2.7614    2.3039 C.3       1     ****    0.0000
     18 C          -2.0130   -3.7271    1.5245 C.3       1     ****    0.0000
     19 C          -1.4920   -3.8889    0.0921 C.3       1     ****    0.0000
     20 C          -1.4012   -2.5302   -0.6189 C.3       1     ****    0.0000
     21 H           3.8952    4.7090    3.1301 H         1     ****    0.0000
     22 H           4.0372    2.9315    2.8657 H         1     ****    0.0000
     23 H           3.9655    4.0949    1.4367 H         1     ****    0.0000
     24 H          -0.3361    3.4631    2.3425 H         1     ****    0.0000
     25 H          -1.5460    1.8209    1.0765 H         1     ****    0.0000
     26 H           2.1172    0.2853   -0.3803 H         1     ****    0.0000
     27 H           3.3063    1.9019    0.8687 H         1     ****    0.0000
     28 H          -1.6538    0.1851   -0.5564 H         1     ****    0.0000
     29 H          -0.8390   -0.7111   -2.6441 H         1     ****    0.0000
     30 H           0.8527   -0.6529   -2.0898 H         1     ****    0.0000
     31 H           0.7830    2.1307   -4.3832 H         1     ****    0.0000
     32 H           1.6063    0.6209   -3.9165 H         1     ****    0.0000
     33 H          -0.0431    0.5477   -4.6497 H         1     ****    0.0000
     34 H          -1.0909    2.9420   -3.1486 H         1     ****    0.0000
     35 H          -1.6361    2.1493   -1.6615 H         1     ****    0.0000
     36 H          -2.0043    1.3901   -3.2586 H         1     ****    0.0000
     37 H           0.8272   -2.8120    0.5950 H         1     ****    0.0000
     38 H          -0.3432   -0.7463    2.1846 H         1     ****    0.0000
     39 H          -2.0346   -0.9279    1.6139 H         1     ****    0.0000
     40 H          -1.5150   -2.6239    3.3367 H         1     ****    0.0000
     41 H          -0.0944   -3.2021    2.4121 H         1     ****    0.0000
     42 H          -2.0446   -4.7188    2.0357 H         1     ****    0.0000
     43 H          -3.0566   -3.3327    1.5019 H         1     ****    0.0000
     44 H          -2.1675   -4.5709   -0.4784 H         1     ****    0.0000
     45 H          -0.4880   -4.3750    0.1124 H         1     ****    0.0000
     46 H          -0.9893   -2.7064   -1.6399 H         1     ****    0.0000
     47 H          -2.4333   -2.1252   -0.7454 H         1     ****    0.0000
@<TRIPOS>BOND
     1     1     2     1
     2     1    21     1
     3     1    22     1
     4     1    23     1
     5     2     3     1
     6     3     4     1
     7     3     8     2
     8     4     5     2
     9     4    24     1
    10     5     6     1
    11     5    25     1
    12     6     7     2
    13     6     9     1
    14     7     8     1
    15     7    26     1
    16     8    27     1
    17     9    10     1
    18     9    14     1
    19     9    28     1
    20    10    11     1
    21    10    29     1
    22    10    30     1
    23    11    12     1
    24    11    13     1
    25    12    31     1
    26    12    32     1
    27    12    33     1
    28    13    34     1
    29    13    35     1
    30    13    36     1
    31    14    15     1
    32    14    16     1
    33    14    20     1
    34    15    37     1
    35    16    17     1
    36    16    38     1
    37    16    39     1
    38    17    18     1
    39    17    40     1
    40    17    41     1
    41    18    19     1
    42    18    42     1
    43    18    43     1
    44    19    20     1
    45    19    44     1
    46    19    45     1
    47    20    46     1
    48    20    47     1
